12
Properties=species:S:1:pos:R:3 pbc="F F F"
La       0.00000000       0.00000000       3.76498542
Ni       3.89567692      -2.24917012       2.09848753
Ni       2.65068024      -0.09277262       2.09848753
Ni       1.40568357      -2.24917012       2.09848753
Ni       2.65068024       1.53037095       0.20772878
Ni       2.65068024      -1.53037095       0.06832564
H        1.35763336       2.27691192       3.72630830
H        2.65068024       0.03728902       3.72630830
H        3.94372713       2.27691192       3.72630830
H        3.89367433       0.81272798       1.51890222
H        2.65068024       2.96565690       1.51890222
H        1.40768615       0.81272798       1.51890222
