83
0 1
Ag -6.1565340000 -4.1043560000 1.0418749846
Ag -4.1043560000 -2.0521780000 1.0418749846
Ag -8.2087120000 -2.0521780000 1.0418749846
Ag -6.1565340000 0.0000000000 1.0418749846
Ag -10.2608900000 -4.1043560000 1.0418749846
Ag -12.3130680000 -2.0521780000 1.0418749846
Ag -10.2608900000 0.0000000000 1.0418749846
Ag -4.1043560000 2.0521780000 1.0418749846
Ag -8.2087120000 2.0521780000 1.0418749846
Ag -6.1565340000 4.1043560000 1.0418749846
Ag -12.3130680000 2.0521780000 1.0418749846
Ag -10.2608900000 4.1043560000 1.0418749846
Ag -6.1565340000 -2.0521780000 -1.0103030154
Ag -10.2608900000 -2.0521780000 -1.0103030154
Ag -6.1565340000 2.0521780000 -1.0103030154
Ag -10.2608900000 2.0521780000 -1.0103030154
Ag -8.2087120000 0.0000000000 -1.0103030154
Ag -4.1043560000 -4.1043560000 -1.0103030154
Ag -8.2087120000 -4.1043560000 -1.0103030154
Ag -4.1043560000 0.0000000000 -1.0103030154
Ag -12.3130680000 -4.1043560000 -1.0103030154
Ag -12.3130680000 0.0000000000 -1.0103030154
Ag -4.1043560000 4.1043560000 -1.0103030154
Ag -8.2087120000 4.1043560000 -1.0103030154
Ag -12.3130680000 4.1043560000 -1.0103030154
Ag 2.0521780000 -4.1043560000 1.0418749846
Ag 4.1043560000 -2.0521780000 1.0418749846
Ag 0.0000000000 -2.0521780000 1.0418749846
Ag 2.0521780000 0.0000000000 1.0418749846
Ag -2.0521780000 -4.1043560000 1.0418749846
Ag -2.0521780000 0.0000000000 1.0418749846
Ag 4.1043560000 2.0521780000 1.0418749846
Ag 0.0000000000 2.0521780000 1.0418749846
Ag 2.0521780000 4.1043560000 1.0418749846
Ag -2.0521780000 4.1043560000 1.0418749846
Ag 2.0521780000 -2.0521780000 -1.0103030154
Ag -2.0521780000 -2.0521780000 -1.0103030154
Ag 2.0521780000 2.0521780000 -1.0103030154
Ag -2.0521780000 2.0521780000 -1.0103030154
Ag 0.0000000000 0.0000000000 -1.0103030154
Ag 4.1043560000 -4.1043560000 -1.0103030154
Ag 0.0000000000 -4.1043560000 -1.0103030154
Ag 4.1043560000 0.0000000000 -1.0103030154
Ag 4.1043560000 4.1043560000 -1.0103030154
Ag 0.0000000000 4.1043560000 -1.0103030154
Ag 10.2608900000 -4.1043560000 1.0418749846
Ag 12.3130680000 -2.0521780000 1.0418749846
Ag 8.2087120000 -2.0521780000 1.0418749846
Ag 10.2608900000 0.0000000000 1.0418749846
Ag 6.1565340000 -4.1043560000 1.0418749846
Ag 6.1565340000 0.0000000000 1.0418749846
Ag 12.3130680000 2.0521780000 1.0418749846
Ag 8.2087120000 2.0521780000 1.0418749846
Ag 10.2608900000 4.1043560000 1.0418749846
Ag 6.1565340000 4.1043560000 1.0418749846
Ag 10.2608900000 -2.0521780000 -1.0103030154
Ag 6.1565340000 -2.0521780000 -1.0103030154
Ag 10.2608900000 2.0521780000 -1.0103030154
Ag 6.1565340000 2.0521780000 -1.0103030154
Ag 8.2087120000 0.0000000000 -1.0103030154
Ag 12.3130680000 -4.1043560000 -1.0103030154
Ag 8.2087120000 -4.1043560000 -1.0103030154
Ag 12.3130680000 0.0000000000 -1.0103030154
Ag 12.3130680000 4.1043560000 -1.0103030154
Ag 8.2087120000 4.1043560000 -1.0103030154
H -6.510534 -4.104356 7.041875
H -5.802534 -4.104356 7.041875
H -10.614890 -4.104356 7.041875
H -9.906890 -4.104356 7.041875
H -10.614890 0.000000 7.041875
H -9.906890 0.000000 7.041875
H 1.698178 -4.104356 7.041875
H 2.406178 -4.104356 7.041875
H -2.406178 -4.104356 7.041875
H -1.698178 -4.104356 7.041875
H 3.750356 2.052178 7.041875
H 4.458356 2.052178 7.041875
H 9.906890 -4.104356 7.041875
H 10.614890 -4.104356 7.041875
H 5.802534 -4.104356 7.041875
H 6.510534 -4.104356 7.041875
H 11.959068 2.052178 7.041875
H 12.667068 2.052178 7.041875
