64
0 1
Al -4.837088 -4.216932 1.338939
Al -7.239614 -0.055654 1.339182
Al -0.032184 -4.216930 1.339152
Al -2.435110 -0.055699 1.338084
Al -4.837140 -4.216888 -1.339284
Al -7.239738 -0.055684 -1.339075
Al -0.032074 -4.216931 -1.339074
Al -2.434430 -0.055612 -1.339126
Al -4.837084 -1.442771 0.846762
Al -2.434553 -2.829946 -0.846853
Al 2.370312 -4.216898 1.339116
Al -0.032519 -0.055629 1.338718
Al 7.175404 -4.216911 1.339137
Al 4.772861 -0.055588 1.339097
Al 2.370403 -4.216918 -1.339114
Al -0.031952 -0.055606 -1.339096
Al 7.175428 -4.216903 -1.339117
Al 4.772922 -0.055631 -1.339137
Al 2.370323 -1.442691 0.846836
Al 4.772911 -2.829825 -0.846912
Al -4.837061 -0.055668 1.339099
Al -7.239627 4.105644 1.339117
Al -2.434595 4.105654 1.339141
Al -4.837252 -0.055837 -1.339140
Al -7.239656 4.105644 -1.339160
Al -2.434402 4.105714 -1.339073
Al -4.837057 2.718566 0.846916
Al -2.434457 1.331654 -0.846825
Al 2.370315 -0.055597 1.339018
Al -0.032114 4.105642 1.339114
Al 7.175388 -0.055584 1.339146
Al 4.772880 4.105634 1.339121
Al 2.370425 -0.055634 -1.339143
Al -0.032037 4.105685 -1.339106
Al 7.175436 -0.055624 -1.339110
Al 4.772917 4.105647 -1.339145
Al 2.370356 2.718540 0.846851
Al 4.772911 1.331455 -0.846931
O -1.503190 -4.216957 0.000049
O -3.905689 -0.055739 0.000021
O -4.101594 -2.942939 -0.000161
O -6.504183 -1.329622 0.000040
O -1.699151 -1.329486 0.000237
O 5.704375 -4.216907 0.000004
O 3.301835 -0.055623 -0.000048
O 3.105874 -2.942953 -0.000018
O 0.703359 -1.329553 -0.000085
O 5.508415 -1.329581 0.000003
O -1.503254 -0.055678 0.000204
O -3.905575 4.105675 -0.000003
O -4.101574 1.218312 0.000013
O -6.504115 2.831693 -0.000017
O -1.699031 2.831749 0.000072
O 5.704371 -0.055619 -0.000002
O 3.301856 4.105644 -0.000018
O 3.105887 1.218313 -0.000057
O 0.703406 2.831698 -0.000042
O 5.508414 2.831690 -0.000009
H -4.293603 -3.271700 6.360604
H -3.629126 -3.911768 7.390403
H 0.098907 -0.116426 1.975031
H -2.051558 -0.027398 2.136997
H 3.189747 -0.038868 3.927792
H 1.268860 -0.152519 3.232373
