79
0 1
Al -6.0583943846 -4.0389296000 1.0252668462
Al -4.0389293846 -2.0194646000 1.0252668462
Al -8.0778593846 -2.0194646000 1.0252668462
Al -6.0583943846 0.0000004000 1.0252668462
Al -10.0973233846 -4.0389296000 1.0252668462
Al -12.1167883846 -2.0194646000 1.0252668462
Al -10.0973233846 0.0000004000 1.0252668462
Al -4.0389293846 2.0194644000 1.0252668462
Al -8.0778593846 2.0194644000 1.0252668462
Al -6.0583943846 4.0389294000 1.0252668462
Al -12.1167883846 2.0194644000 1.0252668462
Al -10.0973233846 4.0389294000 1.0252668462
Al -6.0583943846 -2.0194646000 -0.9941981538
Al -10.0973233846 -2.0194646000 -0.9941981538
Al -6.0583943846 2.0194644000 -0.9941981538
Al -10.0973233846 2.0194644000 -0.9941981538
Al -8.0778593846 0.0000004000 -0.9941981538
Al -4.0389293846 -4.0389296000 -0.9941981538
Al -8.0778593846 -4.0389296000 -0.9941981538
Al -4.0389293846 0.0000004000 -0.9941981538
Al -12.1167883846 -4.0389296000 -0.9941981538
Al -12.1167883846 0.0000004000 -0.9941981538
Al -4.0389293846 4.0389294000 -0.9941981538
Al -8.0778593846 4.0389294000 -0.9941981538
Al -12.1167883846 4.0389294000 -0.9941981538
Al 2.0194646154 -4.0389296000 1.0252668462
Al 4.0389296154 -2.0194646000 1.0252668462
Al -0.0000003846 -2.0194646000 1.0252668462
Al 2.0194646154 0.0000004000 1.0252668462
Al -2.0194643846 -4.0389296000 1.0252668462
Al -2.0194643846 0.0000004000 1.0252668462
Al 4.0389296154 2.0194644000 1.0252668462
Al -0.0000003846 2.0194644000 1.0252668462
Al 2.0194646154 4.0389294000 1.0252668462
Al -2.0194643846 4.0389294000 1.0252668462
Al 2.0194646154 -2.0194646000 -0.9941981538
Al -2.0194643846 -2.0194646000 -0.9941981538
Al 2.0194646154 2.0194644000 -0.9941981538
Al -2.0194643846 2.0194644000 -0.9941981538
Al -0.0000003846 0.0000004000 -0.9941981538
Al 4.0389296154 -4.0389296000 -0.9941981538
Al -0.0000003846 -4.0389296000 -0.9941981538
Al 4.0389296154 0.0000004000 -0.9941981538
Al 4.0389296154 4.0389294000 -0.9941981538
Al -0.0000003846 4.0389294000 -0.9941981538
Al 10.0973236154 -4.0389296000 1.0252668462
Al 12.1167886154 -2.0194646000 1.0252668462
Al 8.0778586154 -2.0194646000 1.0252668462
Al 10.0973236154 0.0000004000 1.0252668462
Al 6.0583946154 -4.0389296000 1.0252668462
Al 6.0583946154 0.0000004000 1.0252668462
Al 12.1167886154 2.0194644000 1.0252668462
Al 8.0778586154 2.0194644000 1.0252668462
Al 10.0973236154 4.0389294000 1.0252668462
Al 6.0583946154 4.0389294000 1.0252668462
Al 10.0973236154 -2.0194646000 -0.9941981538
Al 6.0583946154 -2.0194646000 -0.9941981538
Al 10.0973236154 2.0194644000 -0.9941981538
Al 6.0583946154 2.0194644000 -0.9941981538
Al 8.0778586154 0.0000004000 -0.9941981538
Al 12.1167886154 -4.0389296000 -0.9941981538
Al 8.0778586154 -4.0389296000 -0.9941981538
Al 12.1167886154 0.0000004000 -0.9941981538
Al 12.1167886154 4.0389294000 -0.9941981538
Al 8.0778586154 4.0389294000 -0.9941981538
H -6.412394 -4.038930 7.025267
H -5.704394 -4.038930 7.025267
H -6.412394 0.000000 7.025267
H -5.704394 0.000000 7.025267
H -12.470788 2.019464 7.025267
H -11.762788 2.019464 7.025267
H -0.354000 -2.019465 7.025267
H 0.354000 -2.019465 7.025267
H -2.373464 4.038929 7.025267
H -1.665464 4.038929 7.025267
H 7.723859 -2.019465 7.025267
H 8.431859 -2.019465 7.025267
H 11.762789 2.019464 7.025267
H 12.470789 2.019464 7.025267
