108
0 1
Ga -7.187626 -7.187720 0.000159
Ga -7.187621 -1.437539 0.000162
Ga -1.437438 -7.187721 0.000050
Ga -1.437130 -1.437006 0.000089
Ga -4.312507 -4.312629 0.000117
Ga 1.437650 -7.187722 -0.000015
Ga 1.437818 -1.437306 -0.000152
Ga 7.187825 -7.187726 -0.000127
Ga 7.187838 -1.437542 -0.000148
Ga 4.312743 -4.312633 -0.000085
Ga -7.187614 1.437552 0.000167
Ga -7.187620 7.187730 0.000148
Ga -1.437089 1.437067 0.000041
Ga -1.437434 7.187729 0.000037
Ga -4.312464 4.312589 0.000150
Ga 1.437842 1.437346 -0.000173
Ga 1.437654 7.187732 -0.000034
Ga 7.187837 1.437550 -0.000148
Ga 7.187827 7.187732 -0.000144
Ga 4.312743 4.312623 -0.000097
As -8.625160 -5.750183 1.437711
As -5.750076 -8.625268 1.437670
As -8.625148 0.000007 1.437722
As -5.750063 -2.875091 1.437663
As -2.874968 -5.750180 1.437624
As 0.000120 -8.625268 1.437564
As -2.877885 0.000020 1.438097
As 0.000417 -2.874651 1.437563
As -5.750101 -5.750177 -1.437423
As -2.874905 -2.875008 -1.437329
As -8.625219 -8.625272 -1.437372
As -8.625206 -2.875086 -1.437376
As -5.750107 0.000005 -1.437419
As -2.875030 -8.625267 -1.437471
As 0.000066 -5.750178 -1.437529
As 0.000221 0.000005 -1.437595
As 0.000121 -5.750177 1.437563
As 2.875206 -8.625272 1.437511
As 0.000353 0.000054 1.437344
As 2.875293 -2.874994 1.437425
As 5.750298 -5.750179 1.437455
As 8.625388 -8.625277 1.437412
As 5.750310 0.000004 1.437442
As 8.625395 -2.875092 1.437391
As 2.875162 -5.750180 -1.437588
As 5.750256 -2.875091 -1.437648
As 0.000066 -8.625269 -1.437529
As 0.000261 -2.874927 -1.437427
As 2.875273 -0.000005 -1.437750
As 5.750245 -8.625268 -1.437629
As 8.625331 -5.750183 -1.437685
As 8.625344 0.000003 -1.437706
As -8.625152 2.875093 1.437717
As -5.750059 0.000003 1.437673
As -8.625156 8.625272 1.437697
As -5.750049 5.750178 1.437659
As -2.874785 2.874859 1.437757
As -2.874974 8.625273 1.437600
As 0.000125 5.750188 1.437550
As -5.750090 2.875088 -1.437412
As -2.875008 5.750170 -1.437475
As -8.625199 0.000008 -1.437370
As -8.625214 5.750185 -1.437386
As -5.750117 8.625283 -1.437442
As -2.875142 0.000021 -1.437475
As 0.000301 2.874908 -1.437483
As 0.000066 8.625276 -1.437545
As 0.000437 2.874728 1.437505
As 2.875375 0.000021 1.437355
As 0.000124 8.625280 1.437547
As 2.875215 5.750180 1.437492
As 5.750308 2.875091 1.437440
As 8.625398 0.000004 1.437387
As 5.750292 8.625278 1.437442
As 8.625390 5.750179 1.437398
As 2.875211 2.875037 -1.437666
As 5.750250 5.750186 -1.437648
As 0.000069 5.750185 -1.437541
As 2.875156 8.625277 -1.437602
As 5.750257 0.000003 -1.437655
As 8.625342 2.875094 -1.437699
As 8.625331 8.625273 -1.437700
H -8.571525 -5.330914 7.611513
H -7.577058 -5.151638 7.453386
H -5.759301 -8.175787 7.621070
H -4.786014 -7.999031 7.456712
H -8.060597 -0.033701 7.211637
H -7.085446 -0.036098 6.843836
H -2.600656 -4.497988 6.299797
H -1.743923 -4.282233 5.875315
H -0.496091 -7.601322 7.018197
H 0.468402 -7.582081 7.047746
H -0.696770 0.231123 1.891303
H -1.640877 0.147874 1.666699
H 4.369128 -4.694017 6.811240
H 5.286006 -4.896070 7.200302
H 7.861448 -8.308612 7.836831
H 8.870400 -8.395330 7.872329
H 3.890473 0.030471 5.208403
H 4.549606 0.066291 6.045435
H -8.859819 8.395523 7.885338
H -7.852273 8.286914 7.847529
H -2.925755 7.807215 7.356356
H -1.968076 7.674079 7.175278
H -0.403536 4.185656 5.703212
H 0.537956 4.229872 5.725444
H 4.792548 7.937602 7.451215
H 5.769139 8.103618 7.615982
