92
Converted to XYZ format using Ångström coordinates
Ga -1.126754 -5.633753 -0.000003
Ga -5.633753 -5.633752 -0.000003
Ga -1.126754 -1.126742 -0.000016
Ga -5.633755 -1.126752 -0.000007
Ga -3.380252 -3.380251 -0.000001
Ga 5.633750 -5.633753 0.000002
Ga 1.126748 -5.633754 0.000001
Ga 5.633748 -1.126752 0.000006
Ga 1.126728 -1.126761 0.000010
Ga 3.380248 -3.380254 0.000003
Ga -1.126765 1.126723 0.000008
Ga -5.633755 1.126749 -0.000005
Ga -1.126754 5.633750 0.000000
Ga -5.633753 5.633751 -0.000002
Ga -3.380255 3.380250 0.000000
Ga 5.633748 1.126749 0.000007
Ga 1.126767 1.126764 0.000036
Ga 5.633750 5.633751 0.000004
Ga 1.126748 5.633750 0.000003
Ga 3.380249 3.380251 0.000003
N -2.253500 -6.760502 1.126751
N -0.000000 -4.507002 1.126750
N -6.760502 -6.760503 1.126753
N -4.507001 -4.507002 1.126751
N -2.253499 -2.253498 1.126753
N 0.000059 0.000058 1.126598
N -6.760502 -2.253502 1.126749
N -4.507002 -0.000000 1.126749
N -2.253501 -4.507002 -1.126751
N -4.507002 -2.253501 -1.126752
N -0.000000 -6.760503 -1.126750
N -4.507001 -6.760501 -1.126749
N -6.760501 -4.507003 -1.126749
N -0.000007 -2.253510 -1.126744
N -2.253514 -0.000005 -1.126739
N -6.760503 0.000000 -1.126752
N 4.507003 -6.760502 1.126751
N 6.760502 -4.507003 1.126750
N -0.000001 -6.760502 1.126751
N 2.253501 -4.507002 1.126751
N 4.507001 -2.253501 1.126751
N 6.760500 -0.000000 1.126753
N -0.000002 -2.253497 1.126744
N 2.253494 0.000006 1.126766
N 4.507002 -4.507002 -1.126751
N 2.253495 -2.253509 -1.126744
N 6.760503 -6.760503 -1.126751
N 2.253501 -6.760502 -1.126749
N -0.000001 -4.507003 -1.126751
N 6.760501 -2.253501 -1.126750
N 4.507001 -0.000000 -1.126748
N -0.000010 -0.000008 -1.126751
N -2.253500 -0.000000 1.126743
N 0.000003 2.253492 1.126761
N -6.760503 -0.000000 1.126749
N -4.507002 2.253500 1.126750
N -2.253500 4.507001 1.126750
N -0.000000 6.760502 1.126752
N -6.760502 4.507000 1.126752
N -4.507000 6.760503 1.126751
N -2.253509 2.253489 -1.126746
N -4.507000 4.507002 -1.126750
N -4.507003 0.000000 -1.126753
N -6.760503 2.253500 -1.126750
N -0.000000 4.507001 -1.126749
N -2.253500 6.760502 -1.126750
N -6.760501 6.760501 -1.126749
N 4.507000 -0.000000 1.126753
N 6.760502 2.253499 1.126752
N 2.253501 2.253504 1.126759
N 4.507002 4.507001 1.126750
N 6.760502 6.760501 1.126750
N -0.000000 4.507000 1.126751
N 2.253501 6.760502 1.126751
N 4.507002 2.253500 -1.126749
N 2.253501 4.507001 -1.126749
N 6.760500 -0.000000 -1.126748
N 2.253506 0.000001 -1.126736
N 0.000000 2.253501 -1.126742
N 6.760503 4.507000 -1.126751
N 4.507002 6.760503 -1.126751
N -0.000001 6.760502 -1.126749
H -2.483375 -6.009840 7.026181
H -1.329358 -5.732794 6.834202
H -6.444435 -2.018223 7.202602
H -5.317441 -1.794096 6.658344
H 2.794610 -1.379225 5.307488
H 3.496774 -1.707078 6.358920
H 1.359721 5.700129 6.867670
H 2.516514 5.967872 7.064161
H -1.217704 -0.343452 2.429612
H -0.161642 -0.122349 1.775893
