101
0 1
Ir -5.780894 -3.853930 0.978305
Ir -3.853929 -1.926965 0.978305
Ir -7.707859 -1.926965 0.978305
Ir -5.780894 0.000000 0.978305
Ir -9.634823 -3.853930 0.978305
Ir -11.561788 -1.926965 0.978305
Ir -9.634823 0.000000 0.978305
Ir -3.853929 1.926964 0.978305
Ir -7.707859 1.926964 0.978305
Ir -5.780894 3.853929 0.978305
Ir -11.561788 1.926964 0.978305
Ir -9.634823 3.853929 0.978305
Ir -5.780894 -1.926965 -0.948660
Ir -9.634823 -1.926965 -0.948660
Ir -5.780894 1.926964 -0.948660
Ir -9.634823 1.926964 -0.948660
Ir -7.707859 0.000000 -0.948660
Ir -3.853929 -3.853930 -0.948660
Ir -7.707859 -3.853930 -0.948660
Ir -3.853929 0.000000 -0.948660
Ir -11.561788 -3.853930 -0.948660
Ir -11.561788 0.000000 -0.948660
Ir -3.853929 3.853929 -0.948660
Ir -7.707859 3.853929 -0.948660
Ir -11.561788 3.853929 -0.948660
Ir 1.926965 -3.853930 0.978305
Ir 3.853930 -1.926965 0.978305
Ir -0.000000 -1.926965 0.978305
Ir 1.926965 0.000000 0.978305
Ir -1.926964 -3.853930 0.978305
Ir -1.926964 0.000000 0.978305
Ir 3.853930 1.926964 0.978305
Ir -0.000000 1.926964 0.978305
Ir 1.926965 3.853929 0.978305
Ir -1.926964 3.853929 0.978305
Ir 1.926965 -1.926965 -0.948660
Ir -1.926964 -1.926965 -0.948660
Ir 1.926965 1.926964 -0.948660
Ir -1.926964 1.926964 -0.948660
Ir -0.000000 0.000000 -0.948660
Ir 3.853930 -3.853930 -0.948660
Ir -0.000000 -3.853930 -0.948660
Ir 3.853930 0.000000 -0.948660
Ir 3.853930 3.853929 -0.948660
Ir -0.000000 3.853929 -0.948660
Ir 9.634824 -3.853930 0.978305
Ir 11.561789 -1.926965 0.978305
Ir 7.707859 -1.926965 0.978305
Ir 9.634824 0.000000 0.978305
Ir 5.780895 -3.853930 0.978305
Ir 5.780895 0.000000 0.978305
Ir 11.561789 1.926964 0.978305
Ir 7.707859 1.926964 0.978305
Ir 9.634824 3.853929 0.978305
Ir 5.780895 3.853929 0.978305
Ir 9.634824 -1.926965 -0.948660
Ir 5.780895 -1.926965 -0.948660
Ir 9.634824 1.926964 -0.948660
Ir 5.780895 1.926964 -0.948660
Ir 7.707859 0.000000 -0.948660
Ir 11.561789 -3.853930 -0.948660
Ir 7.707859 -3.853930 -0.948660
Ir 11.561789 0.000000 -0.948660
Ir 11.561789 3.853929 -0.948660
Ir 7.707859 3.853929 -0.948660
H -5.629497 -3.379073 3.493919
H -5.591426 -3.709907 4.733901
H -5.344072 0.000000 1.347969
H -5.826767 -0.000000 2.789185
H -9.729963 -3.800013 5.452646
H -9.466378 -3.533295 4.234612
H -9.580605 -0.000000 4.377343
H -9.419353 -0.000000 3.048831
H -5.629497 3.379072 3.493919
H -5.591426 3.709906 4.733901
H -9.729963 3.800012 5.452646
H -9.466378 3.533294 4.234612
H 1.727619 -3.659806 4.380008
H 2.060408 -3.256398 3.230311
H 1.552973 -0.000000 2.234218
H 2.245974 0.000001 0.891966
H -2.060408 -3.256398 3.230311
H -1.727617 -3.659805 4.380008
H -2.245968 0.000001 0.891957
H -1.552977 -0.000000 2.234217
H 1.727618 3.659805 4.380007
H 2.060409 3.256397 3.230310
H -2.060408 3.256397 3.230310
H -1.727618 3.659804 4.380008
H 9.466379 -3.533295 4.234613
H 9.729964 -3.800013 5.452647
H 9.419354 -0.000000 3.048831
H 9.580606 -0.000000 4.377344
H 5.591426 -3.709907 4.733901
H 5.629498 -3.379073 3.493919
H 5.826767 -0.000000 2.789185
H 5.344073 0.000000 1.347969
H 9.466379 3.533294 4.234612
H 9.729964 3.800012 5.452646
H 5.591427 3.709906 4.733901
H 5.629498 3.379072 3.493919
