42
0 1
O -0.0000001471 -1.9635758529 0.7507790588
O -3.9271511471 -1.9635758529 0.7507790588
O -1.9635751471 -3.9271508529 0.7507790588
O -1.9635751471 0.0000001471 0.7507790588
O -0.0000001471 -3.9271508529 -1.2127969412
O -3.9271511471 -3.9271508529 -1.2127969412
O -0.0000001471 0.0000001471 -1.2127969412
O -3.9271511471 0.0000001471 -1.2127969412
O 3.9271508529 -1.9635758529 0.7507790588
O 1.9635758529 -3.9271508529 0.7507790588
O 1.9635758529 0.0000001471 0.7507790588
O 3.9271508529 -3.9271508529 -1.2127969412
O 3.9271508529 0.0000001471 -1.2127969412
O -0.0000001471 1.9635751471 0.7507790588
O -3.9271511471 1.9635751471 0.7507790588
O -1.9635751471 3.9271511471 0.7507790588
O -0.0000001471 3.9271511471 -1.2127969412
O -3.9271511471 3.9271511471 -1.2127969412
O 3.9271508529 1.9635751471 0.7507790588
O 1.9635758529 3.9271511471 0.7507790588
O 3.9271508529 3.9271511471 -1.2127969412
La -1.9635751471 -1.9635758529 -1.2127969412
La 1.9635758529 -1.9635758529 -1.2127969412
La -1.9635751471 1.9635751471 -1.2127969412
La 1.9635758529 1.9635751471 -1.2127969412
Cr -0.0000001471 -3.9271508529 0.7507790588
Cr -3.9271511471 -3.9271508529 0.7507790588
Cr -0.0000001471 0.0000001471 0.7507790588
Cr -3.9271511471 0.0000001471 0.7507790588
Cr 3.9271508529 -3.9271508529 0.7507790588
Cr 3.9271508529 0.0000001471 0.7507790588
Cr -0.0000001471 3.9271511471 0.7507790588
Cr -3.9271511471 3.9271511471 0.7507790588
Cr 3.9271508529 3.9271511471 0.7507790588
H -0.354000 -1.963576 6.750779
H 0.354000 -1.963576 6.750779
H -0.354000 1.963575 6.750779
H 0.354000 1.963575 6.750779
H -4.281151 0.000000 6.750779
H -3.573151 0.000000 6.750779
H 3.573151 -0.981788 6.750779
H 4.281151 -0.981788 6.750779
