33
0 1
O -1.978588 -1.978589 1.091635
O -0.000000 -1.978589 -0.886954
O -3.957177 -1.978589 -0.886954
O -1.978588 -3.957177 -0.886954
O -1.978588 0.000000 -0.886954
O 1.978589 -1.978589 1.091635
O 3.957177 -1.978589 -0.886954
O 1.978589 -3.957177 -0.886954
O 1.978589 0.000000 -0.886954
O -1.978588 1.978588 1.091635
O -0.000000 1.978588 -0.886954
O -3.957177 1.978588 -0.886954
O -1.978588 3.957177 -0.886954
O 1.978589 1.978588 1.091635
O 3.957177 1.978588 -0.886954
O 1.978589 3.957177 -0.886954
La -0.000000 -3.957177 1.091635
La -3.957177 -3.957177 1.091635
La -0.000000 0.000000 1.091635
La -3.957177 0.000000 1.091635
La 3.957177 -3.957177 1.091635
La 3.957177 0.000000 1.091635
La -0.000000 3.957177 1.091635
La -3.957177 3.957177 1.091635
La 3.957177 3.957177 1.091635
Fe -1.978588 -1.978589 -0.886954
Fe 1.978589 -1.978589 -0.886954
Fe -1.978588 1.978588 -0.886954
Fe 1.978589 1.978588 -0.886954
H -0.083982 -0.208747 3.442062
H -0.794320 -0.098728 1.619098
H 3.001580 -2.986907 6.673626
H 3.907860 -3.912745 7.787355
