42
0 1
O 0.000000 -1.928500 0.737368
O -3.856999 -1.928500 0.737368
O -1.928499 -3.856999 0.737368
O -1.928499 0.000000 0.737368
O 0.000000 -3.856999 -1.191132
O -3.856999 -3.856999 -1.191132
O -0.000000 -0.000000 -1.191132
O -3.856999 -0.000000 -1.191132
O 3.856999 -1.928500 0.737368
O 1.928500 -3.856999 0.737368
O 1.928500 0.000000 0.737368
O 3.856999 -3.856999 -1.191132
O 3.856999 -0.000000 -1.191132
O -0.000000 1.928499 0.737368
O -3.856999 1.928499 0.737368
O -1.928499 3.856999 0.737368
O -0.000000 3.856999 -1.191132
O -3.856999 3.856999 -1.191132
O 3.856999 1.928499 0.737368
O 1.928500 3.856999 0.737368
O 3.856999 3.856999 -1.191132
Ni 0.000000 -3.856999 0.737368
Ni -3.856999 -3.856999 0.737368
Ni -0.000000 0.000000 0.737368
Ni -3.856999 -0.000000 0.737368
Ni 3.856999 -3.856999 0.737368
Ni 3.856999 -0.000000 0.737368
Ni -0.000000 3.856999 0.737368
Ni -3.856999 3.856999 0.737368
Ni 3.856999 3.856999 0.737368
La -1.928499 -1.928500 -1.191132
La 1.928500 -1.928500 -1.191132
La -1.928499 1.928499 -1.191132
La 1.928500 1.928499 -1.191132
H -0.445649 -0.995806 2.880636
H 0.282795 -0.602761 1.916881
H 0.040463 1.030901 2.950152
H 0.119325 0.403766 1.616879
H -3.222522 0.007504 5.685139
H -2.598637 0.003105 4.321073
H 2.622252 -0.615058 4.458825
H 3.290412 -0.738973 5.780531
