96
0 1
Mg -10.485006 -2.097001 -0.923679
Mg -6.291003 -2.097001 -0.923679
Mg -10.485006 2.097002 -0.923679
Mg -6.291003 2.097002 -0.923679
Mg -8.388005 -0.000000 -0.923679
Mg -8.388005 -2.097001 1.173323
Mg -8.388005 2.097002 1.173323
Mg -10.485006 -0.000000 1.173323
Mg -6.291003 -0.000000 1.173323
Mg -2.097001 -2.097001 -0.923679
Mg 2.097002 -2.097001 -0.923679
Mg -2.097001 2.097002 -0.923679
Mg 2.097002 2.097002 -0.923679
Mg -0.000000 -0.000000 -0.923679
Mg -0.000000 -2.097001 1.173323
Mg -0.000000 2.097002 1.173323
Mg -2.097001 -0.000000 1.173323
Mg 2.097002 -0.000000 1.173323
Mg 6.291004 -2.097001 -0.923679
Mg 10.485007 -2.097001 -0.923679
Mg 6.291004 2.097002 -0.923679
Mg 10.485007 2.097002 -0.923679
Mg 8.388005 -0.000000 -0.923679
Mg 8.388005 -2.097001 1.173323
Mg 8.388005 2.097002 1.173323
Mg 6.291004 -0.000000 1.173323
Mg 10.485007 -0.000000 1.173323
O -8.388005 -2.097001 -0.923679
O -8.388005 2.097002 -0.923679
O -10.485006 -0.000000 -0.923679
O -6.291003 -0.000000 -0.923679
O -10.485006 -4.194002 -0.923679
O -12.582007 -2.097001 -0.923679
O -6.291003 -4.194002 -0.923679
O -4.194002 -2.097001 -0.923679
O -12.582007 2.097002 -0.923679
O -10.485006 4.194003 -0.923679
O -4.194002 2.097002 -0.923679
O -6.291003 4.194003 -0.923679
O -10.485006 -2.097001 1.173323
O -6.291003 -2.097001 1.173323
O -10.485006 2.097002 1.173323
O -6.291003 2.097002 1.173323
O -8.388005 -0.000000 1.173323
O -8.388005 -4.194002 1.173323
O -8.388005 4.194003 1.173323
O -12.582007 -0.000000 1.173323
O -4.194002 -0.000000 1.173323
O -0.000000 -2.097001 -0.923679
O -0.000000 2.097002 -0.923679
O -2.097001 -0.000000 -0.923679
O 2.097002 -0.000000 -0.923679
O -2.097001 -4.194002 -0.923679
O 2.097002 -4.194002 -0.923679
O 4.194003 -2.097001 -0.923679
O -2.097001 4.194003 -0.923679
O 4.194003 2.097002 -0.923679
O 2.097002 4.194003 -0.923679
O -2.097001 -2.097001 1.173323
O 2.097002 -2.097001 1.173323
O -2.097001 2.097002 1.173323
O 2.097002 2.097002 1.173323
O -0.000000 -0.000000 1.173323
O -0.000000 -4.194002 1.173323
O -0.000000 4.194003 1.173323
O 4.194003 -0.000000 1.173323
O 8.388005 -2.097001 -0.923679
O 8.388005 2.097002 -0.923679
O 6.291004 -0.000000 -0.923679
O 10.485007 -0.000000 -0.923679
O 6.291004 -4.194002 -0.923679
O 10.485007 -4.194002 -0.923679
O 12.582008 -2.097001 -0.923679
O 6.291004 4.194003 -0.923679
O 12.582008 2.097002 -0.923679
O 10.485007 4.194003 -0.923679
O 6.291004 -2.097001 1.173323
O 10.485007 -2.097001 1.173323
O 6.291004 2.097002 1.173323
O 10.485007 2.097002 1.173323
O 8.388005 -0.000000 1.173323
O 8.388005 -4.194002 1.173323
O 8.388005 4.194003 1.173323
O 12.582008 -0.000000 1.173323
H -7.936226 -2.170527 7.131200
H -7.366289 -1.821807 5.947261
H 1.098951 -0.003067 2.262411
H 1.447282 -0.012612 3.695258
H -5.550543 1.662964 5.605721
H -5.696476 2.001245 6.759017
H -1.854419 1.802845 5.754111
H -1.526576 1.101005 4.480154
H 9.529359 -1.961658 6.741703
H 10.378939 -2.164580 7.602279
H -10.622962 1.051407 7.208899
H -9.558171 1.092686 7.073962
