57
0 1
Nb -6.6352646829 -6.6352646829 -0.6473432195
Nb -3.3176326829 -6.6352646829 -0.6473432195
Nb -6.6352646829 -3.3176326829 -0.6473432195
Nb -3.3176326829 -3.3176326829 -0.6473432195
Nb 0.0000003171 -6.6352646829 -0.6473432195
Nb 0.0000003171 -3.3176326829 -0.6473432195
Nb -6.6352646829 0.0000003171 -0.6473432195
Nb -3.3176326829 0.0000003171 -0.6473432195
Nb 0.0000003171 0.0000003171 -0.6473432195
Nb -4.9764486829 -4.9764486829 1.0114737805
Nb -1.6588166829 -4.9764486829 1.0114737805
Nb -4.9764486829 -1.6588166829 1.0114737805
Nb -1.6588166829 -1.6588166829 1.0114737805
Nb 3.3176323171 -6.6352646829 -0.6473432195
Nb 3.3176323171 -3.3176326829 -0.6473432195
Nb 6.6352653171 -6.6352646829 -0.6473432195
Nb 6.6352653171 -3.3176326829 -0.6473432195
Nb 3.3176323171 0.0000003171 -0.6473432195
Nb 6.6352653171 0.0000003171 -0.6473432195
Nb 1.6588163171 -4.9764486829 1.0114737805
Nb 4.9764483171 -4.9764486829 1.0114737805
Nb 1.6588163171 -1.6588166829 1.0114737805
Nb 4.9764483171 -1.6588166829 1.0114737805
Nb -6.6352646829 3.3176323171 -0.6473432195
Nb -3.3176326829 3.3176323171 -0.6473432195
Nb 0.0000003171 3.3176323171 -0.6473432195
Nb -6.6352646829 6.6352653171 -0.6473432195
Nb -3.3176326829 6.6352653171 -0.6473432195
Nb 0.0000003171 6.6352653171 -0.6473432195
Nb -4.9764486829 1.6588163171 1.0114737805
Nb -1.6588166829 1.6588163171 1.0114737805
Nb -4.9764486829 4.9764483171 1.0114737805
Nb -1.6588166829 4.9764483171 1.0114737805
Nb 3.3176323171 3.3176323171 -0.6473432195
Nb 6.6352653171 3.3176323171 -0.6473432195
Nb 3.3176323171 6.6352653171 -0.6473432195
Nb 6.6352653171 6.6352653171 -0.6473432195
Nb 1.6588163171 1.6588163171 1.0114737805
Nb 4.9764483171 1.6588163171 1.0114737805
Nb 1.6588163171 4.9764483171 1.0114737805
Nb 4.9764483171 4.9764483171 1.0114737805
H -5.330449 -4.976449 7.011474
H -4.622449 -4.976449 7.011474
H -5.330449 -1.658817 7.011474
H -4.622449 -1.658817 7.011474
H 1.304816 -4.976449 7.011474
H 2.012816 -4.976449 7.011474
H 1.304816 -1.658817 7.011474
H 2.012816 -1.658817 7.011474
H -5.330449 1.658816 7.011474
H -4.622449 1.658816 7.011474
H -5.330449 4.976448 7.011474
H -4.622449 4.976448 7.011474
H 1.304816 1.658816 7.011474
H 2.012816 1.658816 7.011474
H 1.304816 4.976448 7.011474
H 2.012816 4.976448 7.011474
