31
0 1
Pd -3.917332 -3.917389 -0.940689
Pd -0.000069 -3.917298 -0.940106
Pd -3.917433 -0.000051 -0.940811
Pd -0.000134 -0.000001 -0.940181
Pd -1.958705 -1.958716 -0.940453
Pd -1.959048 -3.917278 1.018261
Pd -1.959241 0.000005 1.018104
Pd -3.917711 -1.958663 1.017887
Pd -0.000559 -1.958600 1.018534
Pd 3.917255 -3.917223 -0.939573
Pd 3.917186 0.000063 -0.939588
Pd 1.958551 -1.958607 -0.939852
Pd 1.958256 -3.917274 1.018809
Pd 1.958188 0.000093 1.018781
Pd 3.916933 -1.958565 1.019078
Pd -3.917474 3.917246 -0.940760
Pd -0.000174 3.917302 -0.940250
Pd -1.958809 1.958622 -0.940508
Pd -1.959121 3.917287 1.018146
Pd -3.917764 1.958586 1.017852
Pd -0.000489 1.958708 1.018434
Pd 3.917159 3.917347 -0.939717
Pd 1.958517 1.958673 -0.939929
Pd 1.958192 3.917394 1.018658
Pd 3.916881 1.958772 1.019008
H -1.142478 -2.794377 3.556165
H -1.485299 -2.710894 2.705757
H 1.024981 -2.484691 2.423419
H 1.310865 -2.610902 3.246828
H -2.046891 0.613000 2.538486
H -2.775335 0.369178 1.719323
