29
0 1
Pd -2.685629 -1.526802 0.549649
Pd -5.371257 -3.053604 -0.977153
Pd 0.000000 -3.053604 -0.977153
Pd -5.371257 0.000000 -0.977153
Pd 0.000000 -0.000000 -0.977153
Pd 2.685628 -1.526802 0.549649
Pd 5.371257 -3.053604 -0.977153
Pd 5.371257 -0.000000 -0.977153
Pd -2.685629 1.526802 0.549649
Pd -5.371257 3.053604 -0.977153
Pd 0.000000 3.053604 -0.977153
Pd 2.685628 1.526802 0.549649
Pd 5.371257 3.053604 -0.977153
O -4.028443 -3.053604 0.549649
O -4.028443 -0.000000 0.549649
O -1.342814 -3.053604 0.549649
O -1.342814 0.000000 0.549649
O 1.342814 -3.053604 0.549649
O 1.342814 0.000000 0.549649
O 4.028443 -3.053604 0.549649
O 4.028443 0.000000 0.549649
O -4.028443 3.053604 0.549649
O -1.342814 3.053604 0.549649
O 1.342814 3.053604 0.549649
O 4.028443 3.053604 0.549649
H -3.234921 -1.596265 0.199967
H -3.448227 -1.680916 0.068564
H -3.544496 2.668601 5.094630
H -4.048606 2.512828 4.553998
