59
0 1
Re -1.9515920000 -3.9031840000 0.9974803556
Re 0.0000000000 -1.9515920000 0.9974803556
Re -3.9031840000 -1.9515920000 0.9974803556
Re -1.9515920000 0.0000000000 0.9974803556
Re -5.8547760000 -3.9031840000 0.9974803556
Re -7.8063680000 -1.9515920000 0.9974803556
Re -5.8547760000 0.0000000000 0.9974803556
Re 0.0000000000 1.9515920000 0.9974803556
Re -3.9031840000 1.9515920000 0.9974803556
Re -1.9515920000 3.9031840000 0.9974803556
Re -7.8063680000 1.9515920000 0.9974803556
Re -5.8547760000 3.9031840000 0.9974803556
Re -1.9515920000 -1.9515920000 -0.9541116444
Re -5.8547760000 -1.9515920000 -0.9541116444
Re -1.9515920000 1.9515920000 -0.9541116444
Re -5.8547760000 1.9515920000 -0.9541116444
Re -3.9031840000 0.0000000000 -0.9541116444
Re 0.0000000000 -3.9031840000 -0.9541116444
Re -3.9031840000 -3.9031840000 -0.9541116444
Re 0.0000000000 0.0000000000 -0.9541116444
Re -7.8063680000 -3.9031840000 -0.9541116444
Re -7.8063680000 0.0000000000 -0.9541116444
Re 0.0000000000 3.9031840000 -0.9541116444
Re -3.9031840000 3.9031840000 -0.9541116444
Re -7.8063680000 3.9031840000 -0.9541116444
Re 5.8547760000 -3.9031840000 0.9974803556
Re 7.8063680000 -1.9515920000 0.9974803556
Re 3.9031840000 -1.9515920000 0.9974803556
Re 5.8547760000 0.0000000000 0.9974803556
Re 1.9515920000 -3.9031840000 0.9974803556
Re 1.9515920000 0.0000000000 0.9974803556
Re 7.8063680000 1.9515920000 0.9974803556
Re 3.9031840000 1.9515920000 0.9974803556
Re 5.8547760000 3.9031840000 0.9974803556
Re 1.9515920000 3.9031840000 0.9974803556
Re 5.8547760000 -1.9515920000 -0.9541116444
Re 1.9515920000 -1.9515920000 -0.9541116444
Re 5.8547760000 1.9515920000 -0.9541116444
Re 1.9515920000 1.9515920000 -0.9541116444
Re 3.9031840000 0.0000000000 -0.9541116444
Re 7.8063680000 -3.9031840000 -0.9541116444
Re 3.9031840000 -3.9031840000 -0.9541116444
Re 7.8063680000 0.0000000000 -0.9541116444
Re 7.8063680000 3.9031840000 -0.9541116444
Re 3.9031840000 3.9031840000 -0.9541116444
H -0.354000 -1.951592 6.997480
H 0.354000 -1.951592 6.997480
H -0.354000 1.951592 6.997480
H 0.354000 1.951592 6.997480
H -4.257184 -1.951592 6.997480
H -3.549184 -1.951592 6.997480
H -4.257184 1.951592 6.997480
H -3.549184 1.951592 6.997480
H 3.549184 -1.951592 6.997480
H 4.257184 -1.951592 6.997480
H 3.549184 1.951592 6.997480
H 4.257184 1.951592 6.997480
H -8.160368 -1.951592 6.997480
H -7.452368 -1.951592 6.997480
