85
0 1
Rh -5.708958 -3.805972 0.966131
Rh -3.805972 -1.902986 0.966131
Rh -7.611944 -1.902986 0.966131
Rh -5.708958 -0.000000 0.966131
Rh -9.514930 -3.805972 0.966131
Rh -11.417916 -1.902986 0.966131
Rh -9.514930 0.000000 0.966131
Rh -3.805972 1.902986 0.966131
Rh -7.611944 1.902986 0.966131
Rh -5.708958 3.805972 0.966131
Rh -11.417916 1.902986 0.966131
Rh -9.514930 3.805972 0.966131
Rh -5.708958 -1.902986 -0.936855
Rh -9.514930 -1.902986 -0.936855
Rh -5.708958 1.902986 -0.936855
Rh -9.514930 1.902986 -0.936855
Rh -7.611944 0.000000 -0.936855
Rh -3.805972 -3.805972 -0.936855
Rh -7.611944 -3.805972 -0.936855
Rh -3.805972 0.000000 -0.936855
Rh -11.417916 -3.805972 -0.936855
Rh -11.417916 0.000000 -0.936855
Rh -3.805972 3.805972 -0.936855
Rh -7.611944 3.805972 -0.936855
Rh -11.417916 3.805972 -0.936855
Rh 1.902986 -3.805972 0.966131
Rh 3.805972 -1.902986 0.966131
Rh 0.000000 -1.902986 0.966131
Rh 1.902986 -0.000000 0.966131
Rh -1.902986 -3.805972 0.966131
Rh -1.902986 0.000000 0.966131
Rh 3.805972 1.902986 0.966131
Rh 0.000000 1.902986 0.966131
Rh 1.902986 3.805972 0.966131
Rh -1.902986 3.805972 0.966131
Rh 1.902986 -1.902986 -0.936855
Rh -1.902986 -1.902986 -0.936855
Rh 1.902986 1.902986 -0.936855
Rh -1.902986 1.902986 -0.936855
Rh 0.000000 0.000000 -0.936855
Rh 3.805972 -3.805972 -0.936855
Rh -0.000000 -3.805972 -0.936855
Rh 3.805972 -0.000000 -0.936855
Rh 3.805972 3.805972 -0.936855
Rh 0.000000 3.805972 -0.936855
Rh 9.514930 -3.805972 0.966131
Rh 11.417916 -1.902986 0.966131
Rh 7.611944 -1.902986 0.966131
Rh 9.514930 0.000000 0.966131
Rh 5.708958 -3.805972 0.966131
Rh 5.708958 0.000000 0.966131
Rh 11.417916 1.902986 0.966131
Rh 7.611944 1.902986 0.966131
Rh 9.514930 3.805972 0.966131
Rh 5.708958 3.805972 0.966131
Rh 9.514930 -1.902986 -0.936855
Rh 5.708958 -1.902986 -0.936855
Rh 9.514930 1.902986 -0.936855
Rh 5.708958 1.902986 -0.936855
Rh 7.611944 0.000000 -0.936855
Rh 11.417916 -3.805972 -0.936855
Rh 7.611944 -3.805972 -0.936855
Rh 11.417916 -0.000000 -0.936855
Rh 11.417916 3.805972 -0.936855
Rh 7.611944 3.805972 -0.936855
H -4.517528 -3.326060 6.000820
H -4.037995 -2.841888 4.867900
H -11.246773 -2.148449 7.896736
H -9.950833 -2.049480 7.562746
H -5.958997 1.765041 6.488789
H -5.299364 1.508247 5.329790
H -11.298704 2.144671 7.898894
H -10.006304 2.045907 7.578054
H 1.989688 -0.840220 2.103308
H 2.745499 -1.306353 3.522587
H -1.353229 -2.670458 4.457671
H -0.854919 -2.304397 3.297292
H 2.805407 1.294120 3.062408
H 1.700912 0.631900 1.485649
H -1.494097 2.720604 4.518756
H -0.953224 2.339391 3.378180
H 5.550078 -1.654204 5.516776
H 6.282895 -1.862152 6.637850
H 5.547003 1.646284 5.540645
H 6.289338 1.850293 6.654084
