93
0 1
Ru -11.3741340000 -1.8956890000 0.9624267231
Ru -9.4784450000 -3.7913780000 0.9624267231
Ru -7.5827560000 -1.8956890000 0.9624267231
Ru -9.4784450000 0.0000000000 0.9624267231
Ru -11.3741340000 1.8956890000 0.9624267231
Ru -7.5827560000 1.8956890000 0.9624267231
Ru -9.4784450000 3.7913780000 0.9624267231
Ru -5.6870670000 -3.7913780000 0.9624267231
Ru -3.7913780000 -1.8956890000 0.9624267231
Ru -5.6870670000 0.0000000000 0.9624267231
Ru -3.7913780000 1.8956890000 0.9624267231
Ru -5.6870670000 3.7913780000 0.9624267231
Ru -9.4784450000 -1.8956890000 -0.9332622769
Ru -9.4784450000 1.8956890000 -0.9332622769
Ru -5.6870670000 -1.8956890000 -0.9332622769
Ru -5.6870670000 1.8956890000 -0.9332622769
Ru -7.5827560000 0.0000000000 -0.9332622769
Ru -11.3741340000 -3.7913780000 -0.9332622769
Ru -11.3741340000 0.0000000000 -0.9332622769
Ru -7.5827560000 -3.7913780000 -0.9332622769
Ru -11.3741340000 3.7913780000 -0.9332622769
Ru -7.5827560000 3.7913780000 -0.9332622769
Ru -3.7913780000 -3.7913780000 -0.9332622769
Ru -3.7913780000 0.0000000000 -0.9332622769
Ru -3.7913780000 3.7913780000 -0.9332622769
Ru -1.8956890000 -3.7913780000 0.9624267231
Ru 0.0000000000 -1.8956890000 0.9624267231
Ru -1.8956890000 0.0000000000 0.9624267231
Ru 0.0000000000 1.8956890000 0.9624267231
Ru -1.8956890000 3.7913780000 0.9624267231
Ru 1.8956890000 -3.7913780000 0.9624267231
Ru 3.7913780000 -1.8956890000 0.9624267231
Ru 1.8956890000 0.0000000000 0.9624267231
Ru 3.7913780000 1.8956890000 0.9624267231
Ru 1.8956890000 3.7913780000 0.9624267231
Ru -1.8956890000 -1.8956890000 -0.9332622769
Ru -1.8956890000 1.8956890000 -0.9332622769
Ru 1.8956890000 -1.8956890000 -0.9332622769
Ru 1.8956890000 1.8956890000 -0.9332622769
Ru 0.0000000000 0.0000000000 -0.9332622769
Ru 0.0000000000 -3.7913780000 -0.9332622769
Ru 0.0000000000 3.7913780000 -0.9332622769
Ru 3.7913780000 -3.7913780000 -0.9332622769
Ru 3.7913780000 0.0000000000 -0.9332622769
Ru 3.7913780000 3.7913780000 -0.9332622769
Ru 5.6870670000 -3.7913780000 0.9624267231
Ru 7.5827560000 -1.8956890000 0.9624267231
Ru 5.6870670000 0.0000000000 0.9624267231
Ru 7.5827560000 1.8956890000 0.9624267231
Ru 5.6870670000 3.7913780000 0.9624267231
Ru 9.4784450000 -3.7913780000 0.9624267231
Ru 11.3741340000 -1.8956890000 0.9624267231
Ru 9.4784450000 0.0000000000 0.9624267231
Ru 11.3741340000 1.8956890000 0.9624267231
Ru 9.4784450000 3.7913780000 0.9624267231
Ru 5.6870670000 -1.8956890000 -0.9332622769
Ru 5.6870670000 1.8956890000 -0.9332622769
Ru 9.4784450000 -1.8956890000 -0.9332622769
Ru 9.4784450000 1.8956890000 -0.9332622769
Ru 7.5827560000 0.0000000000 -0.9332622769
Ru 7.5827560000 -3.7913780000 -0.9332622769
Ru 7.5827560000 3.7913780000 -0.9332622769
Ru 11.3741340000 -3.7913780000 -0.9332622769
Ru 11.3741340000 0.0000000000 -0.9332622769
Ru 11.3741340000 3.7913780000 -0.9332622769
H -11.728134 -1.895689 6.962427
H -11.020134 -1.895689 6.962427
H -7.936756 -1.895689 6.962427
H -7.228756 -1.895689 6.962427
H -11.728134 1.895689 6.962427
H -11.020134 1.895689 6.962427
H -7.936756 1.895689 6.962427
H -7.228756 1.895689 6.962427
H -4.145378 -1.895689 6.962427
H -3.437378 -1.895689 6.962427
H -4.145378 1.895689 6.962427
H -3.437378 1.895689 6.962427
H -0.354000 -1.895689 6.962427
H 0.354000 -1.895689 6.962427
H -0.354000 1.895689 6.962427
H 0.354000 1.895689 6.962427
H 3.437378 -1.895689 6.962427
H 4.145378 -1.895689 6.962427
H 3.437378 1.895689 6.962427
H 4.145378 1.895689 6.962427
H 7.228756 -1.895689 6.962427
H 7.936756 -1.895689 6.962427
H 7.228756 1.895689 6.962427
H 7.936756 1.895689 6.962427
H 11.020134 -1.895689 6.962427
H 11.728134 -1.895689 6.962427
H 11.020134 1.895689 6.962427
H 11.728134 1.895689 6.962427
