93
0 1
Ru -11.374134 -1.895689 0.962427
Ru -9.478445 -3.791378 0.962427
Ru -7.582756 -1.895689 0.962427
Ru -9.478445 -0.000000 0.962427
Ru -11.374134 1.895689 0.962427
Ru -7.582756 1.895689 0.962427
Ru -9.478445 3.791378 0.962427
Ru -5.687067 -3.791378 0.962427
Ru -3.791378 -1.895689 0.962427
Ru -5.687067 -0.000000 0.962427
Ru -3.791378 1.895689 0.962427
Ru -5.687067 3.791378 0.962427
Ru -9.478445 -1.895689 -0.933262
Ru -9.478445 1.895689 -0.933262
Ru -5.687067 -1.895689 -0.933262
Ru -5.687067 1.895689 -0.933262
Ru -7.582756 -0.000000 -0.933262
Ru -11.374134 -3.791378 -0.933262
Ru -11.374134 0.000000 -0.933262
Ru -7.582756 -3.791378 -0.933262
Ru -11.374134 3.791378 -0.933262
Ru -7.582756 3.791378 -0.933262
Ru -3.791378 -3.791378 -0.933262
Ru -3.791378 -0.000000 -0.933262
Ru -3.791378 3.791378 -0.933262
Ru -1.895689 -3.791378 0.962427
Ru 0.000000 -1.895689 0.962427
Ru -1.895689 -0.000000 0.962427
Ru -0.000000 1.895689 0.962427
Ru -1.895689 3.791378 0.962427
Ru 1.895689 -3.791378 0.962427
Ru 3.791378 -1.895689 0.962427
Ru 1.895689 0.000000 0.962427
Ru 3.791378 1.895689 0.962427
Ru 1.895689 3.791378 0.962427
Ru -1.895689 -1.895689 -0.933262
Ru -1.895689 1.895689 -0.933262
Ru 1.895689 -1.895689 -0.933262
Ru 1.895689 1.895689 -0.933262
Ru -0.000000 -0.000000 -0.933262
Ru -0.000000 -3.791378 -0.933262
Ru -0.000000 3.791378 -0.933262
Ru 3.791378 -3.791378 -0.933262
Ru 3.791378 0.000000 -0.933262
Ru 3.791378 3.791378 -0.933262
Ru 5.687067 -3.791378 0.962427
Ru 7.582756 -1.895689 0.962427
Ru 5.687067 -0.000000 0.962427
Ru 7.582756 1.895689 0.962427
Ru 5.687067 3.791378 0.962427
Ru 9.478445 -3.791378 0.962427
Ru 11.374134 -1.895689 0.962427
Ru 9.478445 -0.000000 0.962427
Ru 11.374134 1.895689 0.962427
Ru 9.478445 3.791378 0.962427
Ru 5.687067 -1.895689 -0.933262
Ru 5.687067 1.895689 -0.933262
Ru 9.478445 -1.895689 -0.933262
Ru 9.478445 1.895689 -0.933262
Ru 7.582756 0.000000 -0.933262
Ru 7.582756 -3.791378 -0.933262
Ru 7.582756 3.791378 -0.933262
Ru 11.374134 -3.791378 -0.933262
Ru 11.374134 -0.000000 -0.933262
Ru 11.374134 3.791378 -0.933262
H -11.316867 -2.148094 7.874025
H -10.043696 -2.080263 7.596727
H -6.052801 -1.877449 6.530928
H -5.334313 -1.655447 5.434127
H -11.316867 2.148094 7.874025
H -10.043696 2.080263 7.596727
H -6.052801 1.877449 6.530928
H -5.334313 1.655447 5.434127
H -2.011993 -0.989780 2.847441
H -2.711085 -0.753982 1.184434
H -2.011993 0.989780 2.847441
H -2.711085 0.753982 1.184434
H -0.157671 -1.313065 0.326740
H 0.157671 -1.313065 0.326740
H -0.157671 1.313065 0.326740
H 0.157671 1.313065 0.326740
H 2.711085 -0.753982 1.184434
H 2.011993 -0.989780 2.847441
H 2.711085 0.753982 1.184434
H 2.011993 0.989780 2.847441
H 5.334313 -1.655447 5.434127
H 6.052801 -1.877449 6.530928
H 5.334313 1.655447 5.434127
H 6.052801 1.877449 6.530928
H 10.043696 -2.080263 7.596727
H 11.316867 -2.148094 7.874025
H 10.043696 2.080263 7.596727
H 11.316867 2.148094 7.874025
