60
0 1
Si -8.3645638750 -1.3877250000 0.1576937500
Si -9.9028748750 1.2767070000 0.1576937500
Si -5.2879428750 -1.3877250000 0.1576937500
Si -6.8262528750 1.2767070000 0.1576937500
Si -0.6730108750 -1.3877250000 0.1576937500
Si -2.2113218750 1.2767070000 0.1576937500
Si 2.4036101250 -1.3877250000 0.1576937500
Si 0.8653001250 1.2767070000 0.1576937500
Si 7.0185421250 -1.3877250000 0.1576937500
Si 5.4802311250 1.2767070000 0.1576937500
Si 10.0951631250 -1.3877250000 0.1576937500
Si 8.5568531250 1.2767070000 0.1576937500
C -9.9028748750 -2.2758690000 0.7886767500
C -6.8262528750 -2.2758690000 0.7886767500
C -8.3645638750 0.3885630000 0.7886767500
C -11.4411848750 0.3885630000 0.7886767500
C -9.9028748750 3.0529950000 0.7886767500
C -3.7496318750 -2.2758690000 0.7886767500
C -5.2879428750 0.3885630000 0.7886767500
C -6.8262528750 3.0529950000 0.7886767500
C -8.3645638750 -1.3877250000 -1.7350472500
C -9.9028748750 1.2767070000 -1.7350472500
C -5.2879428750 -1.3877250000 -1.7350472500
C -6.8262528750 1.2767070000 -1.7350472500
C -2.2113218750 -2.2758690000 0.7886767500
C 0.8653001250 -2.2758690000 0.7886767500
C -0.6730108750 0.3885630000 0.7886767500
C -3.7496318750 0.3885630000 0.7886767500
C -2.2113218750 3.0529950000 0.7886767500
C 3.9419211250 -2.2758690000 0.7886767500
C 2.4036101250 0.3885630000 0.7886767500
C 0.8653001250 3.0529950000 0.7886767500
C -0.6730108750 -1.3877250000 -1.7350472500
C -2.2113218750 1.2767070000 -1.7350472500
C 2.4036101250 -1.3877250000 -1.7350472500
C 0.8653001250 1.2767070000 -1.7350472500
C 5.4802311250 -2.2758690000 0.7886767500
C 8.5568531250 -2.2758690000 0.7886767500
C 7.0185421250 0.3885630000 0.7886767500
C 3.9419211250 0.3885630000 0.7886767500
C 5.4802311250 3.0529950000 0.7886767500
C 11.6334741250 -2.2758690000 0.7886767500
C 10.0951631250 0.3885630000 0.7886767500
C 8.5568531250 3.0529950000 0.7886767500
C 7.0185421250 -1.3877250000 -1.7350472500
C 5.4802311250 1.2767070000 -1.7350472500
C 10.0951631250 -1.3877250000 -1.7350472500
C 8.5568531250 1.2767070000 -1.7350472500
H -10.256875 -2.275869 6.788677
H -9.548875 -2.275869 6.788677
H -10.256875 3.052995 6.788677
H -9.548875 3.052995 6.788677
H -2.565322 -2.275869 6.788677
H -1.857322 -2.275869 6.788677
H -2.565322 3.052995 6.788677
H -1.857322 3.052995 6.788677
H 5.126231 -2.275869 6.788677
H 5.834231 -2.275869 6.788677
H 5.126231 3.052995 6.788677
H 5.834231 3.052995 6.788677
