62
0 1
C -2.1657190000 -4.3314380000 -1.0828595000
C -2.1657190000 0.0000000000 -1.0828595000
C -4.3314380000 -2.1657190000 -1.0828595000
C 0.0000000000 -2.1657190000 -1.0828595000
C -4.3314380000 -4.3314380000 1.0828595000
C 0.0000000000 -4.3314380000 1.0828595000
C -4.3314380000 0.0000000000 1.0828595000
C 0.0000000000 0.0000000000 1.0828595000
C -2.1657190000 -2.1657190000 1.0828595000
C 2.1657190000 -4.3314380000 -1.0828595000
C 2.1657190000 0.0000000000 -1.0828595000
C 4.3314380000 -2.1657190000 -1.0828595000
C 4.3314380000 -4.3314380000 1.0828595000
C 4.3314380000 0.0000000000 1.0828595000
C 2.1657190000 -2.1657190000 1.0828595000
C -2.1657190000 4.3314380000 -1.0828595000
C -4.3314380000 2.1657190000 -1.0828595000
C 0.0000000000 2.1657190000 -1.0828595000
C -4.3314380000 4.3314380000 1.0828595000
C 0.0000000000 4.3314380000 1.0828595000
C -2.1657190000 2.1657190000 1.0828595000
C 2.1657190000 4.3314380000 -1.0828595000
C 4.3314380000 2.1657190000 -1.0828595000
C 4.3314380000 4.3314380000 1.0828595000
C 2.1657190000 2.1657190000 1.0828595000
Ti -4.3314380000 -4.3314380000 -1.0828595000
Ti 0.0000000000 -4.3314380000 -1.0828595000
Ti -4.3314380000 0.0000000000 -1.0828595000
Ti 0.0000000000 0.0000000000 -1.0828595000
Ti -2.1657190000 -2.1657190000 -1.0828595000
Ti -2.1657190000 -4.3314380000 1.0828595000
Ti -2.1657190000 0.0000000000 1.0828595000
Ti -4.3314380000 -2.1657190000 1.0828595000
Ti 0.0000000000 -2.1657190000 1.0828595000
Ti 4.3314380000 -4.3314380000 -1.0828595000
Ti 4.3314380000 0.0000000000 -1.0828595000
Ti 2.1657190000 -2.1657190000 -1.0828595000
Ti 2.1657190000 -4.3314380000 1.0828595000
Ti 2.1657190000 0.0000000000 1.0828595000
Ti 4.3314380000 -2.1657190000 1.0828595000
Ti -4.3314380000 4.3314380000 -1.0828595000
Ti 0.0000000000 4.3314380000 -1.0828595000
Ti -2.1657190000 2.1657190000 -1.0828595000
Ti -2.1657190000 4.3314380000 1.0828595000
Ti -4.3314380000 2.1657190000 1.0828595000
Ti 0.0000000000 2.1657190000 1.0828595000
Ti 4.3314380000 4.3314380000 -1.0828595000
Ti 2.1657190000 2.1657190000 -1.0828595000
Ti 2.1657190000 4.3314380000 1.0828595000
Ti 4.3314380000 2.1657190000 1.0828595000
H -4.685438 -4.331438 7.082859
H -3.977438 -4.331438 7.082859
H -4.685438 4.331438 7.082859
H -3.977438 4.331438 7.082859
H 1.811719 -4.331438 7.082859
H 2.519719 -4.331438 7.082859
H -3.602579 0.000000 7.082859
H -2.894578 0.000000 7.082859
H 2.894578 0.000000 7.082859
H 3.602579 0.000000 7.082859
H 3.977438 3.248579 7.082859
H 4.685438 3.248579 7.082859
