56
0 1
O -5.946320 -3.867919 1.282737
O -0.000000 -3.867919 1.282737
O -2.973160 -3.872955 1.282737
O -1.485694 0.699584 0.000000
O -2.973160 -3.872955 -1.282738
O -1.487466 -1.865654 0.000000
O -4.460626 0.699584 0.000000
O -5.946320 -3.867919 -1.282738
O 0.000000 -3.867919 -1.282738
O -4.458854 -1.865654 0.000000
O 5.946320 -3.867919 1.282737
O 2.973160 -3.872955 1.282737
O 4.460626 0.699584 0.000000
O 2.973160 -3.872955 -1.282738
O 4.458854 -1.865654 0.000000
O 1.485694 0.699584 0.000000
O 5.946320 -3.867919 -1.282738
O 1.487466 -1.865654 0.000000
O -5.946320 0.704620 1.282737
O -0.000000 0.704620 1.282737
O -2.973160 0.699584 1.282737
O -1.485694 5.272123 0.000000
O -2.973160 0.699584 -1.282738
O -1.487466 2.706885 0.000000
O -4.460626 5.272123 0.000000
O -5.946320 0.704620 -1.282738
O -0.000000 0.704620 -1.282738
O -4.458854 2.706885 0.000000
O 5.946320 0.704620 1.282737
O 2.973160 0.699584 1.282737
O 4.460626 5.272123 0.000000
O 2.973160 0.699584 -1.282738
O 4.458854 2.706885 0.000000
O 1.485694 5.272123 0.000000
O 5.946320 0.704620 -1.282738
O 1.487466 2.706885 0.000000
Ti -1.486580 -3.870437 0.000000
Ti -2.973160 -0.614298 0.000000
Ti -5.946320 -0.551772 0.000000
Ti -0.000000 -0.551772 0.000000
Ti -4.459740 -3.870437 0.000000
Ti 4.459740 -3.870437 0.000000
Ti 2.973160 -0.614298 0.000000
Ti 5.946320 -0.551772 0.000000
Ti 1.486580 -3.870437 0.000000
Ti -1.486580 0.702102 0.000000
Ti -2.973160 3.958241 0.000000
Ti -5.946320 4.020767 0.000000
Ti -0.000000 4.020767 0.000000
Ti -4.459740 0.702102 0.000000
Ti 4.459740 0.702102 0.000000
Ti 2.973160 3.958241 0.000000
Ti 5.946320 4.020767 0.000000
Ti 1.486580 0.702102 0.000000
H -4.117060 -2.311663 6.348259
H -3.049928 -1.439625 4.128389
