76
0 1
C -5.5560520000 -5.5231454375 -1.3681661250
C -3.0970290000 -4.1034284375 -1.3681661250
C -0.6380050000 -2.6837104375 -1.3681661250
C -3.8261770000 -2.8405054375 1.1576788750
C -6.2852010000 -4.2602234375 1.1576788750
C -1.3671540000 -1.4207874375 1.1576788750
C -4.8269040000 -6.7860684375 1.1576788750
C -2.3678800000 -5.3663504375 1.1576788750
C 0.0911440000 -3.9466324375 1.1576788750
C -7.0143490000 -2.9973004375 -1.3681661250
C -4.5553260000 -1.5775834375 -1.3681661250
C -2.0963020000 -0.1578654375 -1.3681661250
C 1.5494410000 -5.5231454375 -1.3681661250
C 4.0084640000 -4.1034284375 -1.3681661250
C 6.4674880000 -2.6837104375 -1.3681661250
C 3.2793160000 -2.8405054375 1.1576788750
C 0.8202920000 -4.2602234375 1.1576788750
C 5.7383390000 -1.4207874375 1.1576788750
C 2.2785890000 -6.7860684375 1.1576788750
C 4.7376130000 -5.3663504375 1.1576788750
C 7.1966370000 -3.9466324375 1.1576788750
C 0.0911440000 -2.9973004375 -1.3681661250
C 2.5501670000 -1.5775834375 -1.3681661250
C 5.0091910000 -0.1578654375 -1.3681661250
C -5.5560520000 1.1050575625 -1.3681661250
C -3.0970290000 2.5247745625 -1.3681661250
C -0.6380050000 3.9444925625 -1.3681661250
C -3.8261770000 3.7876975625 1.1576788750
C -6.2852010000 2.3679795625 1.1576788750
C -1.3671540000 5.2074155625 1.1576788750
C -4.8269040000 -0.1578654375 1.1576788750
C -2.3678800000 1.2618525625 1.1576788750
C 0.0911440000 2.6815705625 1.1576788750
C -7.0143490000 3.6309025625 -1.3681661250
C -4.5553260000 5.0506195625 -1.3681661250
C -2.0963020000 6.4703375625 -1.3681661250
C 1.5494410000 1.1050575625 -1.3681661250
C 4.0084640000 2.5247745625 -1.3681661250
C 6.4674880000 3.9444925625 -1.3681661250
C 3.2793160000 3.7876975625 1.1576788750
C 0.8202920000 2.3679795625 1.1576788750
C 5.7383390000 5.2074155625 1.1576788750
C 2.2785890000 -0.1578654375 1.1576788750
C 4.7376130000 1.2618525625 1.1576788750
C 7.1966370000 2.6815705625 1.1576788750
C 0.0911440000 3.6309025625 -1.3681661250
C 2.5501670000 5.0506195625 -1.3681661250
C 5.0091910000 6.4703375625 -1.3681661250
W -4.3265400000 -4.8132864375 0.3157308750
W -1.8675170000 -3.3935694375 0.3157308750
W -5.7848380000 -2.2874424375 0.3157308750
W -3.3258140000 -0.8677244375 0.3157308750
W 2.7789530000 -4.8132864375 0.3157308750
W 5.2379760000 -3.3935694375 0.3157308750
W 1.3206550000 -2.2874424375 0.3157308750
W 3.7796790000 -0.8677244375 0.3157308750
W -4.3265400000 1.8149165625 0.3157308750
W -1.8675170000 3.2346335625 0.3157308750
W -5.7848380000 4.3407605625 0.3157308750
W -3.3258140000 5.7604785625 0.3157308750
W 2.7789530000 1.8149165625 0.3157308750
W 5.2379760000 3.2346335625 0.3157308750
W 1.3206550000 4.3407605625 0.3157308750
W 3.7796790000 5.7604785625 0.3157308750
H -4.180177 -2.840505 7.157679
H -3.472177 -2.840505 7.157679
H -5.180904 -6.786068 7.157679
H -4.472904 -6.786068 7.157679
H 0.466292 -4.260223 7.157679
H 1.174292 -4.260223 7.157679
H 6.842637 -3.946632 7.157679
H 7.550637 -3.946632 7.157679
H -1.721154 5.207416 7.157679
H -1.013154 5.207416 7.157679
H 2.925316 3.787698 7.157679
H 3.633316 3.787698 7.157679
