64
0 1
W -4.384189 -4.386011 -1.095747
W -0.000174 -4.384714 -1.095931
W -4.385330 0.000111 -1.096952
W 0.000098 0.000146 -1.100788
W -2.189420 -2.194491 -1.096520
W -2.191766 -4.384489 1.096949
W -2.196717 -0.000039 1.095599
W -4.384680 -2.192844 1.096283
W -0.000169 -2.187677 1.097222
W -4.383916 4.386150 -1.095460
W 0.000070 4.384687 -1.095573
W -2.189202 2.194530 -1.096409
W -2.191436 4.384382 1.097259
W -4.384579 2.192812 1.096397
W 0.000059 2.187511 1.097356
W 4.383985 -4.386160 -1.095873
W 4.385267 0.000113 -1.096894
W 2.189212 -2.194555 -1.096576
W 2.191497 -4.384652 1.096941
W 2.196690 -0.000014 1.095645
W 4.384607 -2.192967 1.096279
W 4.383943 4.386207 -1.095527
W 2.189200 2.194644 -1.096401
W 2.191515 4.384494 1.097240
W 4.384606 2.192899 1.096399
C -2.190514 -4.385189 -1.095929
C -2.192367 0.000088 -1.098182
C -4.385021 -2.194185 -1.096401
C -0.000069 -2.192193 -1.097832
C -4.384522 -4.385384 1.096550
C -0.000178 -4.384124 1.097391
C -4.385384 0.000006 1.095732
C 0.000002 -0.000046 1.096129
C -2.192960 -2.191133 1.096333
C -2.190212 4.385227 -1.095628
C -4.384884 2.194306 -1.096290
C 0.000084 2.192241 -1.097693
C -4.384321 4.385370 1.096818
C 0.000027 4.383972 1.097711
C -2.192823 2.191026 1.096464
C 2.190267 -4.385322 -1.096000
C 2.192346 0.000095 -1.098129
C 4.384921 -2.194312 -1.096448
C 4.384387 -4.385545 1.096527
C 4.385367 -0.000006 1.095752
C 2.192828 -2.191185 1.096361
C 2.190259 4.385317 -1.095655
C 4.384881 2.194382 -1.096294
C 4.384363 4.385439 1.096790
C 2.192858 2.191085 1.096488
H -0.954934 0.000006 0.132267
H 0.953229 0.000014 0.131302
H -0.564441 -3.281527 4.734179
H 0.564436 -3.281563 4.734256
H -0.564437 3.281550 4.734242
H 0.564440 3.281535 4.734195
H -3.713946 -1.731250 5.949044
H -3.399595 -1.271181 4.865420
H -3.713948 1.731252 5.949046
H -3.399595 1.271183 4.865430
H 3.399606 -1.271184 4.865434
H 3.713948 -1.731253 5.949053
H 3.399624 1.271177 4.865453
H 3.713947 1.731260 5.949061
