76
0 1
C -5.556052 -5.523145 -1.368166
C -3.097029 -4.103428 -1.368166
C -0.638005 -2.683710 -1.368166
C -3.826177 -2.840505 1.157679
C -6.285201 -4.260223 1.157679
C -1.367154 -1.420787 1.157679
C -4.826904 -6.786068 1.157679
C -2.367880 -5.366350 1.157679
C 0.091144 -3.946632 1.157679
C -7.014349 -2.997300 -1.368166
C -4.555326 -1.577583 -1.368166
C -2.096302 -0.157865 -1.368166
C 1.549441 -5.523145 -1.368166
C 4.008464 -4.103428 -1.368166
C 6.467488 -2.683710 -1.368166
C 3.279316 -2.840505 1.157679
C 0.820292 -4.260223 1.157679
C 5.738339 -1.420787 1.157679
C 2.278589 -6.786068 1.157679
C 4.737613 -5.366350 1.157679
C 7.196637 -3.946632 1.157679
C 0.091144 -2.997300 -1.368166
C 2.550167 -1.577583 -1.368166
C 5.009191 -0.157865 -1.368166
C -5.556052 1.105058 -1.368166
C -3.097029 2.524775 -1.368166
C -0.638005 3.944493 -1.368166
C -3.826177 3.787698 1.157679
C -6.285201 2.367980 1.157679
C -1.367154 5.207416 1.157679
C -4.826904 -0.157865 1.157679
C -2.367880 1.261853 1.157679
C 0.091144 2.681571 1.157679
C -7.014349 3.630903 -1.368166
C -4.555326 5.050620 -1.368166
C -2.096302 6.470338 -1.368166
C 1.549441 1.105058 -1.368166
C 4.008464 2.524775 -1.368166
C 6.467488 3.944493 -1.368166
C 3.279316 3.787698 1.157679
C 0.820292 2.367980 1.157679
C 5.738339 5.207416 1.157679
C 2.278589 -0.157865 1.157679
C 4.737613 1.261853 1.157679
C 7.196637 2.681571 1.157679
C 0.091144 3.630903 -1.368166
C 2.550167 5.050620 -1.368166
C 5.009191 6.470338 -1.368166
W -4.326540 -4.813286 0.315731
W -1.867517 -3.393569 0.315731
W -5.784838 -2.287442 0.315731
W -3.325814 -0.867724 0.315731
W 2.778953 -4.813286 0.315731
W 5.237976 -3.393569 0.315731
W 1.320655 -2.287442 0.315731
W 3.779679 -0.867724 0.315731
W -4.326540 1.814917 0.315731
W -1.867517 3.234634 0.315731
W -5.784838 4.340761 0.315731
W -3.325814 5.760479 0.315731
W 2.778953 1.814917 0.315731
W 5.237976 3.234634 0.315731
W 1.320655 4.340761 0.315731
W 3.779679 5.760479 0.315731
H -3.900796 -2.610779 6.199809
H -3.728184 -2.459734 4.766890
H -5.134890 -6.767178 7.044277
H -4.543774 -6.723453 6.884418
H 0.965116 -3.872637 5.608658
H 1.280186 -3.736006 4.831495
H 6.987129 -3.883727 6.462492
H 7.236074 -3.951100 7.157114
H -1.398485 4.995750 6.216788
H -1.194391 4.819073 5.508902
H 2.987279 3.956187 4.348846
H 2.960897 3.635748 5.412686
