30
0 1
Zr -2.740650 0.128984 0.021289
Zr -4.821387 -2.630424 0.025291
Zr -1.365586 -2.992015 0.022082
Zr 2.409303 0.156165 0.017696
Zr 0.320972 -2.616954 0.021149
Zr 3.795922 -2.994358 0.021109
Zr -2.710034 3.293287 0.014803
Zr -4.808396 0.503885 0.021327
Zr -1.319591 0.159005 0.019521
Zr 2.410932 3.297067 0.013264
Zr 0.330589 0.529383 0.016607
Zr 3.798605 0.153161 0.017457
O 0.323912 -1.953484 -0.600765
O -1.763787 -1.196600 1.184113
O -4.784749 -0.510573 0.345552
O -2.947017 -1.863287 -0.961953
O 5.461707 -1.962341 -0.598547
O 3.427558 -1.203144 1.179899
O 0.356229 -0.472363 0.340925
O 2.218246 -1.868692 -0.968700
O 0.331386 1.187021 -0.597922
O -1.678090 1.933058 1.178404
O -4.782510 2.650888 0.344137
O -2.907423 1.259410 -0.976064
O 5.462039 1.183108 -0.601056
O 3.428927 1.940536 1.172345
O 0.354915 2.654340 0.338887
O 2.220747 1.279920 -0.971346
H -1.945427 0.406842 1.345621
H -0.163154 0.693415 1.262246
