101
0 1
Cr -1.791554 -7.166216 0.906836
Cr -0.000000 -5.374662 0.906836
Cr -3.583108 -5.374662 0.906836
Cr -1.791554 -3.583108 0.906836
Cr -5.374661 -7.166216 0.906836
Cr -7.166216 -5.374662 0.906836
Cr -5.374661 -3.583108 0.906836
Cr -0.000000 -1.791554 0.906836
Cr -3.583108 -1.791554 0.906836
Cr -1.791554 -0.000000 0.906836
Cr -7.166216 -1.791554 0.906836
Cr -5.374661 -0.000000 0.906836
Cr -1.791554 -5.374662 -0.884718
Cr -5.374661 -5.374662 -0.884718
Cr -1.791554 -1.791554 -0.884718
Cr -5.374661 -1.791554 -0.884718
Cr -3.583108 -3.583108 -0.884718
Cr -0.000000 -7.166216 -0.884718
Cr -3.583108 -7.166216 -0.884718
Cr -0.000000 -3.583108 -0.884718
Cr -7.166216 -7.166216 -0.884718
Cr -7.166216 -3.583108 -0.884718
Cr -0.000000 -0.000000 -0.884718
Cr -3.583108 -0.000000 -0.884718
Cr -7.166216 -0.000000 -0.884718
Cr -0.000000 1.791554 0.906836
Cr -3.583108 1.791554 0.906836
Cr -1.791554 3.583108 0.906836
Cr -7.166216 1.791554 0.906836
Cr -5.374661 3.583108 0.906836
Cr -0.000000 5.374661 0.906836
Cr -3.583108 5.374661 0.906836
Cr -1.791554 7.166216 0.906836
Cr -7.166216 5.374661 0.906836
Cr -5.374661 7.166216 0.906836
Cr -1.791554 1.791554 -0.884718
Cr -5.374661 1.791554 -0.884718
Cr -1.791554 5.374661 -0.884718
Cr -5.374661 5.374661 -0.884718
Cr -3.583108 3.583108 -0.884718
Cr -0.000000 3.583108 -0.884718
Cr -7.166216 3.583108 -0.884718
Cr -0.000000 7.166216 -0.884718
Cr -3.583108 7.166216 -0.884718
Cr -7.166216 7.166216 -0.884718
Cr 5.374662 -7.166216 0.906836
Cr 7.166215 -5.374662 0.906836
Cr 3.583107 -5.374662 0.906836
Cr 5.374662 -3.583108 0.906836
Cr 1.791554 -7.166216 0.906836
Cr 1.791554 -3.583108 0.906836
Cr 7.166215 -1.791554 0.906836
Cr 3.583107 -1.791554 0.906836
Cr 5.374662 -0.000000 0.906836
Cr 1.791554 -0.000000 0.906836
Cr 5.374662 -5.374662 -0.884718
Cr 1.791554 -5.374662 -0.884718
Cr 5.374662 -1.791554 -0.884718
Cr 1.791554 -1.791554 -0.884718
Cr 3.583107 -3.583108 -0.884718
Cr 7.166215 -7.166216 -0.884718
Cr 3.583107 -7.166216 -0.884718
Cr 7.166215 -3.583108 -0.884718
Cr 7.166215 -0.000000 -0.884718
Cr 3.583107 -0.000000 -0.884718
Cr 7.166215 1.791554 0.906836
Cr 3.583107 1.791554 0.906836
Cr 5.374662 3.583108 0.906836
Cr 1.791554 3.583108 0.906836
Cr 7.166215 5.374661 0.906836
Cr 3.583107 5.374661 0.906836
Cr 5.374662 7.166216 0.906836
Cr 1.791554 7.166216 0.906836
Cr 5.374662 1.791554 -0.884718
Cr 1.791554 1.791554 -0.884718
Cr 5.374662 5.374661 -0.884718
Cr 1.791554 5.374661 -0.884718
Cr 3.583107 3.583108 -0.884718
Cr 7.166215 3.583108 -0.884718
Cr 7.166215 7.166216 -0.884718
Cr 3.583107 7.166216 -0.884718
H -0.297054 -1.292788 3.458576
H -0.113142 -1.487071 3.433384
H -3.034234 1.541281 4.349880
H -2.520216 1.619498 4.292657
H 2.155091 1.511746 3.599543
H 2.853948 1.548407 4.300019
H -0.321475 4.489106 4.337368
H 0.112077 4.444577 4.249905
H -3.090074 -4.533436 5.374592
H -2.614756 -4.552738 5.180999
H 2.530499 -4.597398 5.134511
H 3.126379 -4.611425 5.278844
H -6.100860 -1.643605 5.623487
H -5.460948 -1.589779 5.356352
H 5.343354 -1.522124 4.966577
H 6.126374 -1.505518 5.370960
H -6.457311 4.731536 6.326534
H -5.781819 4.688552 5.722543
H 5.768437 4.755600 5.918542
H 6.434169 4.737308 6.485330
