52
0 1
O -4.233120 -2.116560 -1.058280
O -4.233120 2.116560 -1.058280
O -6.349680 -0.000000 -1.058280
O -2.116560 -0.000000 -1.058280
O -6.349680 -2.116560 1.058280
O -2.116560 -2.116560 1.058280
O -6.349680 2.116560 1.058280
O -2.116560 2.116560 1.058280
O -4.233120 -0.000000 1.058280
O -0.000000 -2.116560 -1.058280
O -0.000000 2.116560 -1.058280
O 2.116559 -0.000000 -1.058280
O 2.116559 -2.116560 1.058280
O 2.116559 2.116560 1.058280
O -0.000000 -0.000000 1.058280
O 4.233121 -2.116560 -1.058280
O 4.233121 2.116560 -1.058280
O 6.349680 -0.000000 -1.058280
O 6.349680 -2.116560 1.058280
O 6.349680 2.116560 1.058280
O 4.233121 -0.000000 1.058280
Cu -6.349680 -2.116560 -1.058280
Cu -2.116560 -2.116560 -1.058280
Cu -6.349680 2.116560 -1.058280
Cu -2.116560 2.116560 -1.058280
Cu -4.233120 -0.000000 -1.058280
Cu -4.233120 -2.116560 1.058280
Cu -4.233120 2.116560 1.058280
Cu -6.349680 -0.000000 1.058280
Cu -2.116560 -0.000000 1.058280
Cu 2.116559 -2.116560 -1.058280
Cu 2.116559 2.116560 -1.058280
Cu -0.000000 -0.000000 -1.058280
Cu -0.000000 -2.116560 1.058280
Cu -0.000000 2.116560 1.058280
Cu 2.116559 -0.000000 1.058280
Cu 6.349680 -2.116560 -1.058280
Cu 6.349680 2.116560 -1.058280
Cu 4.233121 -0.000000 -1.058280
Cu 4.233121 -2.116560 1.058280
Cu 4.233121 2.116560 1.058280
Cu 6.349680 -0.000000 1.058280
H -0.562793 0.100513 2.978306
H -0.034731 0.106038 2.963800
H -3.757833 -1.687169 4.416362
H -3.221287 -1.730759 4.115177
H -3.689001 1.713919 4.543139
H -3.159874 1.682797 4.138617
H 2.975719 -1.629218 4.110418
H 3.662757 -1.623201 4.547965
H 3.033832 1.816800 4.154346
H 3.724917 1.823256 4.636449
