80
0 1
O -3.137050 -6.097081 -1.019224
O -3.257132 -3.048540 -1.019224
O -3.257132 -9.145621 -1.019224
O -3.137050 -0.000000 -1.019224
O -5.232645 -1.581918 0.370627
O -1.161537 -7.563703 0.370627
O -1.161537 -4.630458 0.370627
O -5.232645 -4.515163 0.370627
O -1.161537 -1.466622 0.370627
O -5.232645 -7.678999 0.370627
O -3.137050 3.048540 -1.019224
O -3.257132 6.097081 -1.019224
O -3.257132 -0.000000 -1.019224
O -3.137050 9.145621 -1.019224
O -5.232645 7.563703 0.370627
O -1.161537 1.581918 0.370627
O -1.161537 4.515163 0.370627
O -5.232645 4.630457 0.370627
O -1.161537 7.678998 0.370627
O -5.232645 1.466622 0.370627
O 3.257131 -6.097081 -1.019224
O 3.137051 -3.048540 -1.019224
O 3.137051 -9.145621 -1.019224
O 3.257131 -0.000000 -1.019224
O 1.161536 -1.581918 0.370627
O 5.232644 -7.563703 0.370627
O 5.232644 -4.630458 0.370627
O 1.161536 -4.515163 0.370627
O 5.232644 -1.466622 0.370627
O 1.161536 -7.678999 0.370627
O 3.257131 3.048540 -1.019224
O 3.137051 6.097081 -1.019224
O 3.137051 -0.000000 -1.019224
O 3.257131 9.145621 -1.019224
O 1.161536 7.563703 0.370627
O 5.232644 1.581918 0.370627
O 5.232644 4.515163 0.370627
O 1.161536 4.630457 0.370627
O 5.232644 7.678998 0.370627
O 1.161536 1.466622 0.370627
Fe -0.000000 -3.048540 0.370627
Fe -6.394182 -6.097081 0.370627
Fe -3.197091 -4.572810 0.370627
Fe -3.197091 -7.621351 0.370627
Fe -3.197091 -1.524270 0.370627
Fe -0.000000 6.097081 0.370627
Fe -6.394182 3.048540 0.370627
Fe -3.197091 4.572811 0.370627
Fe -3.197091 1.524270 0.370627
Fe -3.197091 7.621351 0.370627
Fe 6.394183 -3.048540 0.370627
Fe -0.000000 -6.097081 0.370627
Fe 3.197090 -4.572810 0.370627
Fe 3.197090 -7.621351 0.370627
Fe 3.197090 -1.524270 0.370627
Fe 6.394183 6.097081 0.370627
Fe -0.000000 3.048540 0.370627
Fe 3.197090 4.572811 0.370627
Fe 3.197090 1.524270 0.370627
Fe 3.197090 7.621351 0.370627
H -0.301430 1.295869 4.022136
H -0.154299 1.145796 2.787838
H -0.441278 -2.656315 4.111091
H -0.127569 -2.512072 3.739491
H -4.579032 1.173697 4.997426
H -3.968876 1.209603 4.949856
H 3.689941 -1.411033 4.537004
H 4.437650 -1.406071 4.943921
H -0.476927 5.126451 5.260516
H 0.108014 5.135817 5.273173
H 4.034743 3.939009 5.493026
H 4.667006 3.959281 5.538676
H -4.513367 -4.068976 5.392807
H -3.922793 -4.067582 5.414557
H -0.459920 -6.209525 5.774059
H 0.200028 -6.280442 5.777445
H -4.846297 6.485844 6.059123
H -4.220837 6.467634 5.850707
H 3.941324 -6.634145 5.963603
H 4.595371 -6.633387 6.178634
