63
0 1
O -5.252134 -3.291616 -0.354728
O -7.690154 -1.022353 -0.354728
O -10.436841 -1.627690 -0.354728
O -5.875278 1.312427 -0.197221
O -13.291766 1.370734 -0.242306
O -7.989178 -3.787907 -0.885229
O -10.498490 1.167487 -0.661156
O -12.616736 -4.133159 -0.608055
O -13.214355 -1.375332 -0.845509
O -5.563267 4.118454 -0.416310
O -8.316071 3.573049 -0.037180
O -11.109097 3.884843 -0.149020
O 3.942616 -3.291616 -0.354728
O 1.504598 -1.022353 -0.354728
O -1.242090 -1.627690 -0.354728
O 3.319472 1.312427 -0.197221
O -4.097016 1.370734 -0.242306
O 1.205573 -3.787907 -0.885229
O -1.303740 1.167487 -0.661156
O -3.421986 -4.133159 -0.608055
O -4.019605 -1.375332 -0.845509
O 3.631484 4.118454 -0.416310
O 0.878680 3.573049 -0.037180
O -1.914346 3.884843 -0.149020
O 13.137368 -3.291616 -0.354728
O 10.699348 -1.022353 -0.354728
O 7.952662 -1.627690 -0.354728
O 12.514224 1.312427 -0.197221
O 5.097735 1.370734 -0.242306
O 10.400324 -3.787907 -0.885229
O 7.891011 1.167487 -0.661156
O 5.772766 -4.133159 -0.608055
O 5.175147 -1.375332 -0.845509
O 12.826235 4.118454 -0.416310
O 10.073432 3.573049 -0.037180
O 7.280404 3.884843 -0.149020
In -8.860742 -2.572814 0.742656
In -4.746192 2.733573 1.100456
In -9.826392 2.464378 0.997893
In -13.940943 -2.842010 0.640093
In -11.877678 -0.170151 0.473314
In -6.523185 -4.974783 0.306682
In -7.071769 5.172871 0.845072
In 0.334009 -2.572814 0.742656
In 4.448559 2.733573 1.100456
In -0.631641 2.464378 0.997893
In -4.746192 -2.842010 0.640093
In -2.682926 -0.170151 0.473314
In 2.671566 -4.974783 0.306682
In 2.122982 5.172871 0.845072
In 9.528761 -2.572814 0.742656
In 13.643311 2.733573 1.100456
In 8.563109 2.464378 0.997893
In 4.448559 -2.842010 0.640093
In 6.511824 -0.170151 0.473314
In 11.866317 -4.974783 0.306682
In 11.317734 5.172871 0.845072
H 3.700863 2.682587 4.983441
H 4.319535 2.705913 5.017243
H -3.982995 2.526402 4.703857
H -3.382653 2.558029 4.666647
H 11.866774 2.787452 7.421735
H 12.502630 2.798473 7.465443
