42
0 1
O -10.106286 -1.221615 -0.565674
O -4.549478 -4.364395 -0.565674
O -7.124360 4.475467 -0.565674
O -9.797787 -4.263591 -0.152800
O -7.070322 -1.626189 -0.193519
O -9.846023 1.848325 -0.270231
O -3.996241 -1.333436 -0.402970
O -1.489611 -4.175826 -0.217953
O -1.577811 1.078113 -0.555187
O -4.078639 3.930763 -0.485478
O -6.829381 1.409587 -0.746293
O -1.038094 4.085168 -0.985974
O 0.823940 -1.221615 -0.565674
O 6.380748 -4.364395 -0.565674
O 3.805866 4.475467 -0.565674
O 1.132438 -4.263591 -0.152800
O 3.859905 -1.626189 -0.193519
O 1.084203 1.848325 -0.270231
O 6.933985 -1.333436 -0.402970
O 9.440615 -4.175826 -0.217953
O 9.352414 1.078113 -0.555187
O 6.851588 3.930763 -0.485478
O 4.100845 1.409587 -0.746293
O 9.892132 4.085168 -0.985974
La -5.383644 -2.803878 1.072394
La -11.057692 -2.570279 1.192234
La -0.127466 2.659845 0.732606
La -5.801514 2.893444 0.852446
La -8.436965 0.148565 0.699142
La -2.991445 -5.755744 0.812900
La -2.534389 5.585677 0.345701
La 5.546582 -2.803878 1.072394
La -0.127466 -2.570279 1.192234
La 10.802761 2.659845 0.732606
La 5.128712 2.893444 0.852446
La 2.493261 0.148565 0.699142
La 7.938780 -5.755744 0.812900
La 8.395838 5.585677 0.345701
H 0.159382 -1.611115 4.204161
H 0.782558 -1.628630 4.179299
H -9.835601 -1.662522 5.614184
H -9.198418 -1.630916 5.529955
