101
0 1
Pt -1.971575 -7.886300 0.997958
Pt -0.000000 -5.914725 0.997958
Pt -3.943150 -5.914725 0.997958
Pt -1.971575 -3.943150 0.997958
Pt -5.914725 -7.886300 0.997958
Pt -7.886300 -5.914725 0.997958
Pt -5.914725 -3.943150 0.997958
Pt -0.000000 -1.971575 0.997958
Pt -3.943150 -1.971575 0.997958
Pt -1.971575 -0.000000 0.997958
Pt -7.886300 -1.971575 0.997958
Pt -5.914725 -0.000000 0.997958
Pt -1.971575 -5.914725 -0.973617
Pt -5.914725 -5.914725 -0.973617
Pt -1.971575 -1.971575 -0.973617
Pt -5.914725 -1.971575 -0.973617
Pt -3.943150 -3.943150 -0.973617
Pt -0.000000 -7.886300 -0.973617
Pt -3.943150 -7.886300 -0.973617
Pt -0.000000 -3.943150 -0.973617
Pt -7.886300 -7.886300 -0.973617
Pt -7.886300 -3.943150 -0.973617
Pt -0.000000 -0.000000 -0.973617
Pt -3.943150 -0.000000 -0.973617
Pt -7.886300 -0.000000 -0.973617
Pt -0.000000 1.971575 0.997958
Pt -3.943150 1.971575 0.997958
Pt -1.971575 3.943150 0.997958
Pt -7.886300 1.971575 0.997958
Pt -5.914725 3.943150 0.997958
Pt -0.000000 5.914725 0.997958
Pt -3.943150 5.914725 0.997958
Pt -1.971575 7.886300 0.997958
Pt -7.886300 5.914725 0.997958
Pt -5.914725 7.886300 0.997958
Pt -1.971575 1.971575 -0.973617
Pt -5.914725 1.971575 -0.973617
Pt -1.971575 5.914725 -0.973617
Pt -5.914725 5.914725 -0.973617
Pt -3.943150 3.943150 -0.973617
Pt -0.000000 3.943150 -0.973617
Pt -7.886300 3.943150 -0.973617
Pt -0.000000 7.886300 -0.973617
Pt -3.943150 7.886300 -0.973617
Pt -7.886300 7.886300 -0.973617
Pt 5.914725 -7.886300 0.997958
Pt 7.886301 -5.914725 0.997958
Pt 3.943150 -5.914725 0.997958
Pt 5.914725 -3.943150 0.997958
Pt 1.971575 -7.886300 0.997958
Pt 1.971575 -3.943150 0.997958
Pt 7.886301 -1.971575 0.997958
Pt 3.943150 -1.971575 0.997958
Pt 5.914725 -0.000000 0.997958
Pt 1.971575 -0.000000 0.997958
Pt 5.914725 -5.914725 -0.973617
Pt 1.971575 -5.914725 -0.973617
Pt 5.914725 -1.971575 -0.973617
Pt 1.971575 -1.971575 -0.973617
Pt 3.943150 -3.943150 -0.973617
Pt 7.886301 -7.886300 -0.973617
Pt 3.943150 -7.886300 -0.973617
Pt 7.886301 -3.943150 -0.973617
Pt 7.886301 -0.000000 -0.973617
Pt 3.943150 -0.000000 -0.973617
Pt 7.886301 1.971575 0.997958
Pt 3.943150 1.971575 0.997958
Pt 5.914725 3.943150 0.997958
Pt 1.971575 3.943150 0.997958
Pt 7.886301 5.914725 0.997958
Pt 3.943150 5.914725 0.997958
Pt 5.914725 7.886300 0.997958
Pt 1.971575 7.886300 0.997958
Pt 5.914725 1.971575 -0.973617
Pt 1.971575 1.971575 -0.973617
Pt 5.914725 5.914725 -0.973617
Pt 1.971575 5.914725 -0.973617
Pt 3.943150 3.943150 -0.973617
Pt 7.886301 3.943150 -0.973617
Pt 7.886301 7.886300 -0.973617
Pt 3.943150 7.886300 -0.973617
H -1.682556 -0.056645 1.684573
H -1.157258 -0.040149 0.810715
H 1.487863 -3.487182 2.583585
H 2.047017 -3.588677 2.819466
H 2.992886 1.658999 1.106447
H 3.748017 1.678561 2.073201
H -0.193233 5.087780 2.002902
H 0.391709 4.901958 1.641409
H -3.437684 -5.214268 3.756984
H -2.801279 -5.238225 3.645212
H -5.584714 3.572867 2.937594
H -4.888570 3.462126 2.615655
H -7.125217 -1.831747 3.889308
H -6.488641 -1.757667 3.384710
H 6.413687 -1.694860 2.504772
H 7.327411 -1.768533 3.572682
H 5.042531 -6.923433 4.472076
H 5.683485 -6.941919 4.851985
H 6.961770 5.368242 3.474130
H 7.660874 5.359584 4.022377
