128
0 1
Si -7.598139 -5.041073 1.813103
Si -7.598139 5.089780 1.813103
Si -12.663566 0.024353 1.813103
Si -13.929921 2.557066 -1.985966
Si -8.864495 2.557066 -1.985966
Si -5.065426 -3.774717 0.546747
Si -15.196279 -3.774717 0.546747
Si -12.663566 -5.041073 -0.719610
Si -12.663566 5.089780 -0.719610
Si -7.598139 0.024353 -0.719610
Si -11.397208 -2.508360 -1.985966
Si -6.331782 -2.508360 -1.985966
Si -10.130853 3.823423 0.546747
Si -10.130853 -1.242004 0.546747
Si -5.065426 1.290709 0.546747
Si -15.196279 1.290709 0.546747
Si 2.532713 -5.041073 1.813103
Si 2.532713 5.089780 1.813103
Si -2.532713 0.024353 1.813103
Si -3.799069 2.557066 -1.985966
Si 1.266357 2.557066 -1.985966
Si 5.065426 -3.774717 0.546747
Si -2.532713 -5.041073 -0.719610
Si -2.532713 5.089780 -0.719610
Si 2.532713 0.024353 -0.719610
Si -1.266356 -2.508360 -1.985966
Si 3.799070 -2.508360 -1.985966
Si -0.000000 3.823423 0.546747
Si -0.000000 -1.242004 0.546747
Si 5.065426 1.290709 0.546747
Si 12.663565 -5.041073 1.813103
Si 12.663565 5.089780 1.813103
Si 7.598138 0.024353 1.813103
Si 6.331782 2.557066 -1.985966
Si 11.397209 2.557066 -1.985966
Si 15.196277 -3.774717 0.546747
Si 7.598138 -5.041073 -0.719610
Si 7.598138 5.089780 -0.719610
Si 12.663565 0.024353 -0.719610
Si 8.864495 -2.508360 -1.985966
Si 13.929921 -2.508360 -1.985966
Si 10.130852 3.823423 0.546747
Si 10.130852 -1.242004 0.546747
Si 15.196277 1.290709 0.546747
O -10.457809 2.884024 1.813103
O -9.803895 -2.181403 1.813103
O -5.392384 2.230108 1.813103
O -14.869320 -2.835317 1.813103
O -6.331782 -4.714116 0.873704
O -7.925096 1.290709 -1.659009
O -8.864495 -0.302604 0.219789
O -14.869320 2.230108 -0.719610
O -5.392384 -2.835317 -0.719610
O -9.803895 2.884024 -0.719610
O -11.397208 4.762821 0.219789
O -13.929921 0.351310 0.873704
O -7.271183 -1.242004 -1.659009
O -6.331782 0.351310 0.219789
O -8.864495 4.762821 0.873704
O -13.929921 -4.714116 0.219789
O -12.990522 3.823423 -1.659009
O -11.397208 -0.302604 0.873704
O -12.336607 -3.774717 -1.659009
O -10.457809 -2.181403 -0.719610
O -0.326958 2.884024 1.813103
O 0.326957 -2.181403 1.813103
O 4.738469 2.230108 1.813103
O -4.738469 -2.835317 1.813103
O 3.799070 -4.714116 0.873704
O 2.205755 1.290709 -1.659009
O 1.266357 -0.302604 0.219789
O -4.738469 2.230108 -0.719610
O 4.738469 -2.835317 -0.719610
O 0.326957 2.884024 -0.719610
O -1.266356 4.762821 0.219789
O -3.799069 0.351310 0.873704
O 2.859669 -1.242004 -1.659009
O 3.799070 0.351310 0.219789
O 1.266357 4.762821 0.873704
O -3.799069 -4.714116 0.219789
O -2.859670 3.823423 -1.659009
O -1.266356 -0.302604 0.873704
O -2.205755 -3.774717 -1.659009
O -0.326958 -2.181403 -0.719610
O 9.803895 2.884024 1.813103
O 10.457809 -2.181403 1.813103
O 14.869321 2.230108 1.813103
O 5.392384 -2.835317 1.813103
O 13.929921 -4.714116 0.873704
O 12.336607 1.290709 -1.659009
O 11.397209 -0.302604 0.219789
O 5.392384 2.230108 -0.719610
O 14.869321 -2.835317 -0.719610
O 10.457809 2.884024 -0.719610
O 8.864495 4.762821 0.219789
O 6.331782 0.351310 0.873704
O 12.990521 -1.242004 -1.659009
O 13.929921 0.351310 0.219789
O 11.397209 4.762821 0.873704
O 6.331782 -4.714116 0.219789
O 7.271182 3.823423 -1.659009
O 8.864495 -0.302604 0.873704
O 7.925097 -3.774717 -1.659009
O 9.803895 -2.181403 -0.719610
H -0.045519 -1.618288 5.471303
H 0.383956 -1.686713 5.563720
H -0.559661 2.565288 5.601844
H -0.132741 2.518878 5.570399
H 3.411173 1.970845 6.467833
H 3.861017 1.731665 7.432209
H 3.739329 -2.388616 6.484586
H 4.524864 -2.443413 7.259664
H -3.814423 -2.225808 7.789532
H -3.425456 -2.257854 6.328830
H -4.599030 2.053288 6.988750
H -3.921748 1.913450 6.331072
H 8.151976 2.367087 10.301841
H 9.029663 2.409817 11.164409
H 8.649148 -1.995149 10.079097
H 9.363746 -1.986054 10.562911
H -9.056874 -1.679386 9.912796
H -8.078756 -1.812591 9.457072
H -9.638480 2.494797 10.278746
H -8.867789 2.463080 9.790380
H 13.040798 1.860472 12.362990
H 13.670403 1.865741 12.409716
H -13.907396 -2.440902 11.434294
H -13.258058 -2.401236 11.285091
