121
0 1
Y -2.551991 -10.207964 1.291748
Y -0.000000 -7.655973 1.291748
Y -5.103982 -7.655973 1.291748
Y -2.551991 -5.103982 1.291748
Y -7.655973 -10.207964 1.291748
Y -10.207964 -7.655973 1.291748
Y -7.655973 -5.103982 1.291748
Y -0.000000 -2.551991 1.291748
Y -5.103982 -2.551991 1.291748
Y -2.551991 -0.000000 1.291748
Y -10.207964 -2.551991 1.291748
Y -7.655973 -0.000000 1.291748
Y -2.551991 -7.655973 -1.260242
Y -7.655973 -7.655973 -1.260242
Y -2.551991 -2.551991 -1.260242
Y -7.655973 -2.551991 -1.260242
Y -5.103982 -5.103982 -1.260242
Y -0.000000 -10.207964 -1.260242
Y -5.103982 -10.207964 -1.260242
Y -0.000000 -5.103982 -1.260242
Y -10.207964 -10.207964 -1.260242
Y -10.207964 -5.103982 -1.260242
Y -0.000000 -0.000000 -1.260242
Y -5.103982 -0.000000 -1.260242
Y -10.207964 -0.000000 -1.260242
Y -0.000000 2.551991 1.291748
Y -5.103982 2.551991 1.291748
Y -2.551991 5.103982 1.291748
Y -10.207964 2.551991 1.291748
Y -7.655973 5.103982 1.291748
Y -0.000000 7.655972 1.291748
Y -5.103982 7.655972 1.291748
Y -2.551991 10.207965 1.291748
Y -10.207964 7.655972 1.291748
Y -7.655973 10.207965 1.291748
Y -2.551991 2.551991 -1.260242
Y -7.655973 2.551991 -1.260242
Y -2.551991 7.655972 -1.260242
Y -7.655973 7.655972 -1.260242
Y -5.103982 5.103982 -1.260242
Y -0.000000 5.103982 -1.260242
Y -10.207964 5.103982 -1.260242
Y -0.000000 10.207965 -1.260242
Y -5.103982 10.207965 -1.260242
Y -10.207964 10.207965 -1.260242
Y 7.655973 -10.207964 1.291748
Y 10.207964 -7.655973 1.291748
Y 5.103982 -7.655973 1.291748
Y 7.655973 -5.103982 1.291748
Y 2.551990 -10.207964 1.291748
Y 2.551990 -5.103982 1.291748
Y 10.207964 -2.551991 1.291748
Y 5.103982 -2.551991 1.291748
Y 7.655973 -0.000000 1.291748
Y 2.551990 -0.000000 1.291748
Y 7.655973 -7.655973 -1.260242
Y 2.551990 -7.655973 -1.260242
Y 7.655973 -2.551991 -1.260242
Y 2.551990 -2.551991 -1.260242
Y 5.103982 -5.103982 -1.260242
Y 10.207964 -10.207964 -1.260242
Y 5.103982 -10.207964 -1.260242
Y 10.207964 -5.103982 -1.260242
Y 10.207964 -0.000000 -1.260242
Y 5.103982 -0.000000 -1.260242
Y 10.207964 2.551991 1.291748
Y 5.103982 2.551991 1.291748
Y 7.655973 5.103982 1.291748
Y 2.551990 5.103982 1.291748
Y 10.207964 7.655972 1.291748
Y 5.103982 7.655972 1.291748
Y 7.655973 10.207965 1.291748
Y 2.551990 10.207965 1.291748
Y 7.655973 2.551991 -1.260242
Y 2.551990 2.551991 -1.260242
Y 7.655973 7.655972 -1.260242
Y 2.551990 7.655972 -1.260242
Y 5.103982 5.103982 -1.260242
Y 10.207964 5.103982 -1.260242
Y 10.207964 10.207965 -1.260242
Y 5.103982 10.207965 -1.260242
H -0.146475 -2.232764 4.337190
H 0.308815 -2.262525 4.218874
H -0.246971 2.296705 4.187680
H 0.280084 2.179551 4.030649
H -4.269942 -2.442290 7.014522
H -3.739813 -2.334028 5.350853
H -4.773134 2.386062 6.360335
H -4.029331 2.353568 5.127847
H 3.854692 -2.321364 4.890533
H 4.246653 -2.551499 5.815084
H 3.931826 2.269685 5.043392
H 4.394555 2.154598 5.904524
H -0.107636 -6.750361 6.515059
H 0.380014 -6.784741 6.417004
H -0.362821 6.869309 5.676877
H 0.257545 6.790816 5.688624
H -4.386095 -6.875845 7.943311
H -3.741829 -6.854710 7.863774
H -5.253084 7.199866 6.968584
H -4.424457 6.872246 6.860772
H 3.847331 -6.901953 7.170229
H 4.589274 -7.003437 7.415221
H 4.022182 6.641070 6.921035
H 4.810708 6.839630 7.249558
H -9.491655 -2.357298 8.293077
H -8.717348 -2.428237 8.141784
H -10.031555 2.632571 7.918503
H -9.196941 2.404530 7.849528
H 8.540282 -2.491224 7.713497
H 9.356434 -2.477214 8.055680
H 8.696829 2.237215 7.918935
H 9.504606 2.360237 8.202730
H -9.222903 -6.992968 9.599251
H -8.570251 -6.934105 9.250216
H -10.365703 7.305142 8.784793
H -9.706837 7.356375 8.639802
H 8.616343 -7.094418 8.960061
H 9.265667 -7.071393 9.015173
H 8.874784 6.923097 8.830295
H 9.522747 6.953846 9.083050
